SandboxData_C2S7_20210305/C2S7N12209/scenario_002/case.raw
0,100.0,33,0,0,60.0
GRID OPTIMIZATION COMPETITION CHALLENGE 2
INPUT DATA FILES ARE RAW JSON CON
1,'BLUE HILL ~1',69.0,1,1,1,1,1.04202569,-1.628479,1.1,0.9,1.1,0.9
2,'BLUE HILL ~2',161.0,1,1,1,1,1.03752363,0.457345,1.1,0.9,1.1,0.9
3,'BLUE HILL ~3',69.0,1,1,1,1,1.04242527,-1.30555,1.1,0.9,1.1,0.9
4,'BLUE HILL ~4',161.0,1,1,1,1,1.03750646,0.455857,1.1,0.9,1.1,0.9
5,'CAMPBELL 1 1',69.0,1,1,1,1,1.03620136,-2.281608,1.1,0.9,1.1,0.9
6,'GLENVIL 1',69.0,1,1,1,1,1.03688228,-3.286143,1.1,0.9,1.1,0.9
7,'HASTINGS 1 1',161.0,1,1,1,1,1.04264092,-0.669882,1.1,0.9,1.1,0.9
8,'HASTINGS 1 2',69.0,1,1,1,1,1.03744125,-1.970828,1.1,0.9,1.1,0.9
9,'HASTINGS 1 3',161.0,1,1,1,1,1.0427351,-0.658637,1.1,0.9,1.1,0.9
10,'HASTINGS 2 1',69.0,1,1,1,1,1.02959466,-2.547255,1.1,0.9,1.1,0.9
11,'HASTINGS 3 1',69.0,1,1,1,1,1.03374982,-3.378046,1.1,0.9,1.1,0.9
12,'HASTINGS 4 1',161.0,1,1,1,1,1.04171538,-0.75086,1.1,0.9,1.1,0.9
13,'HASTINGS 4 2',69.0,1,1,1,1,1.04038429,-1.614577,1.1,0.9,1.1,0.9
14,'HASTINGS 4 3',161.0,1,1,1,1,1.04159451,-0.762676,1.1,0.9,1.1,0.9
15,'HOLSTEIN 1 1',69.0,1,1,1,1,1.03658235,-2.191354,1.1,0.9,1.1,0.9
16,'HOLSTEIN 1 2',69.0,1,1,1,1,1.03657675,-2.191854,1.1,0.9,1.1,0.9
17,'JUNIATA 1 1',69.0,1,1,1,1,1.03943574,-1.8071,1.1,0.9,1.1,0.9
18,'JUNIATA 2 1',69.0,1,1,1,1,1.03861451,-2.065324,1.1,0.9,1.1,0.9
19,'JUNIATA 3 1',69.0,1,1,1,1,1.0379411,-2.664384,1.1,0.9,1.1,0.9
20,'KENESAW 1 1',69.0,1,1,1,1,1.03318906,-2.121135,1.1,0.9,1.1,0.9
21,'KENESAW 2 1',69.0,1,1,1,1,1.03813481,-3.103019,1.1,0.9,1.1,0.9
22,'KENESAW 3 1',69.0,1,1,1,1,1.03560388,-1.999027,1.1,0.9,1.1,0.9
23,'ROSELAND 1',69.0,1,1,1,1,1.03615654,-2.479061,1.1,0.9,1.1,0.9
24,'ROSELAND 2',69.0,1,1,1,1,1.03616965,-2.47694,1.1,0.9,1.1,0.9
25,'WOOD RIVER~1',69.0,1,1,1,1,1.03836703,-1.79042,1.1,0.9,1.1,0.9
26,'WOOD RIVER~2',69.0,1,1,1,1,1.03031957,-3.33925,1.1,0.9,1.1,0.9
27,'WOOD RIVER~3',69.0,1,1,1,1,1.03034818,-3.280119,1.1,0.9,1.1,0.9
28,'WOOD RIVER~4',69.0,1,1,1,1,1.03034258,-3.281103,1.1,0.9,1.1,0.9
29,'CLEARWATER~1',69.0,1,1,1,1,1.02371526,-10.278937,1.1,0.9,1.1,0.9
30,'CLEARWATER~2',69.0,1,1,1,1,1.02370632,-10.279757,1.1,0.9,1.1,0.9
31,'CLEARWATER~3',69.0,1,1,1,1,1.02289891,-9.388413,1.1,0.9,1.1,0.9
32,'CREIGHTON ~1',69.0,1,1,1,1,1.02570903,-8.974396,1.1,0.9,1.1,0.9
33,'CREIGHTON ~2',69.0,1,1,1,1,1.02491558,-9.436775,1.1,0.9,1.1,0.9
34,'CREIGHTON ~3',69.0,1,1,1,1,1.02479994,-9.218076,1.1,0.9,1.1,0.9
35,'ELGIN 1 1',69.0,1,1,1,1,1.02492476,-10.255225,1.1,0.9,1.1,0.9
36,'ELGIN 1 2',69.0,1,1,1,1,1.02492893,-10.254355,1.1,0.9,1.1,0.9
37,'ELGIN 2 1',69.0,1,1,1,1,1.02541006,-10.203483,1.1,0.9,1.1,0.9
38,'EWING 1 1',69.0,1,1,1,1,1.02103937,-6.668444,1.1,0.9,1.1,0.9
39,'EWING 2 1',69.0,1,1,1,1,1.02473414,-10.186089,1.1,0.9,1.1,0.9
40,'NELIGH 1 1',69.0,1,1,1,1,1.0320518,-8.144441,1.1,0.9,1.1,0.9
41,'NELIGH 2 1',161.0,1,1,1,1,1.00717199,-5.583633,1.1,0.9,1.1,0.9
42,'NELIGH 2 2',69.0,1,1,1,1,1.02662051,-7.913578,1.1,0.9,1.1,0.9
43,'NELIGH 2 3',161.0,1,1,1,1,1.00593984,-5.5701,1.1,0.9,1.1,0.9
44,'ORCHARD 1 1',69.0,1,1,1,1,1.025846,-9.673975,1.1,0.9,1.1,0.9
45,'ORCHARD 1 2',69.0,1,1,1,1,1.02583277,-9.675276,1.1,0.9,1.1,0.9
46,'ORCHARD 2 1',69.0,1,1,1,1,1.02545071,-9.900346,1.1,0.9,1.1,0.9
47,'PLAINVIEW ~1',69.0,1,1,1,1,1.02644908,-8.856644,1.1,0.9,1.1,0.9
48,'PLAINVIEW ~2',69.0,1,1,1,1,1.02684617,-8.799529,1.1,0.9,1.1,0.9
49,'PLAINVIEW ~3',69.0,1,1,1,1,1.03184628,-9.021205,1.1,0.9,1.1,0.9
50,'TILDEN 1 1',69.0,1,1,1,1,1.02293348,-10.036619,1.1,0.9,1.1,0.9
51,'TILDEN 1 2',69.0,1,1,1,1,1.02292609,-10.037649,1.1,0.9,1.1,0.9
52,'TILDEN 2 1',69.0,1,1,1,1,1.01767147,-10.738847,1.1,0.9,1.1,0.9
53,'ARTHUR 1 1',69.0,1,1,1,1,1.02032149,-5.325994,1.1,0.9,1.1,0.9
54,'ARTHUR 2 1',69.0,1,1,1,1,1.02335536,-5.038551,1.1,0.9,1.1,0.9
55,'HYANNIS 1',69.0,1,1,1,1,1.01164925,-6.011167,1.1,0.9,1.1,0.9
56,'HYANNIS 2',69.0,1,1,1,1,1.01163948,-6.011966,1.1,0.9,1.1,0.9
57,'LEMOYNE 1',69.0,1,1,1,1,1.02313292,-3.671374,1.1,0.9,1.1,0.9
58,'LEMOYNE 2',69.0,1,1,1,1,1.02312946,-3.67189,1.1,0.9,1.1,0.9
59,'WHITMAN 1',69.0,1,1,1,1,1.02239406,-2.066782,1.1,0.9,1.1,0.9
60,'BAYARD 1 1',69.0,1,1,1,1,1.0229063,-20.561977,1.1,0.9,1.1,0.9
61,'BAYARD 2 1',69.0,1,1,1,1,1.02428639,-20.676087,1.1,0.9,1.1,0.9
62,'BAYARD 3 1',69.0,1,1,1,1,1.02588642,-20.558934,1.1,0.9,1.1,0.9
63,'BUSHNELL 1',69.0,1,1,1,1,1.03135443,-15.535938,1.1,0.9,1.1,0.9
64,'GERING 1 1',161.0,1,1,1,1,1.03234696,-19.292542,1.1,0.9,1.1,0.9
65,'GERING 1 2',161.0,1,1,1,1,1.03025138,-19.290821,1.1,0.9,1.1,0.9
66,'GERING 1 3',161.0,1,1,1,1,1.03234696,-19.292542,1.1,0.9,1.1,0.9
67,'GERING 2 1',161.0,1,1,1,1,1.02514243,-19.02291,1.1,0.9,1.1,0.9
68,'GERING 2 2',69.0,1,1,1,1,1.01851225,-18.768959,1.1,0.9,1.1,0.9
69,'GERING 2 3',161.0,1,1,1,1,1.0250963,-19.02853,1.1,0.9,1.1,0.9
70,'GERING 3 1',69.0,1,1,1,1,1.0133028,-18.926925,1.1,0.9,1.1,0.9
71,'HARRISBURG~1',69.0,1,1,1,1,1.0185281,-18.253491,1.1,0.9,1.1,0.9
72,'KIMBALL 1 1',69.0,1,1,1,1,1.03230357,-15.30135,1.1,0.9,1.1,0.9
73,'KIMBALL 2 1',69.0,1,1,1,1,1.03264046,-15.154214,1.1,0.9,1.1,0.9
74,'PINE BLUFF~1',69.0,1,1,1,1,1.02989733,-15.675561,1.1,0.9,1.1,0.9
75,'PINE BLUFF~2',161.0,1,1,1,1,1.03419936,-17.123534,1.1,0.9,1.1,0.9
76,'POTTER 1',69.0,1,1,1,1,1.03320372,-14.658742,1.1,0.9,1.1,0.9
77,'ANSELMO 1',69.0,1,1,1,1,1.02656686,0.860601,1.1,0.9,1.1,0.9
78,'DUNNING 1',69.0,1,1,1,1,1.0315634,1.412095,1.1,0.9,1.1,0.9
79,'ALBION 1 1',161.0,1,1,1,1,1.02996874,-9.877645,1.1,0.9,1.1,0.9
80,'ALBION 1 2',69.0,1,1,1,1,1.02241778,-10.09426,1.1,0.9,1.1,0.9
81,'ALBION 1 3',161.0,1,1,1,1,1.03007925,-9.875842,1.1,0.9,1.1,0.9
82,'ALBION 2 1',69.0,1,1,1,1,1.02017224,-10.179542,1.1,0.9,1.1,0.9
83,'ALBION 3 1',69.0,1,1,1,1,1.01918375,-9.988923,1.1,0.9,1.1,0.9
84,'CEDAR RAPI~1',69.0,1,1,1,1,1.02185392,-9.779867,1.1,0.9,1.1,0.9
85,'CEDAR RAP~14',69.0,1,1,1,1,1.02532256,-7.656155,1.1,0.9,1.1,0.9
86,'NEWMAN GRO~1',69.0,1,1,1,1,1.01491582,-11.204519,1.1,0.9,1.1,0.9
87,'NEWMAN GRO~2',69.0,1,1,1,1,1.01491237,-11.20509,1.1,0.9,1.1,0.9
88,'NEWMAN GRO~3',69.0,1,1,1,1,1.01292002,-11.670427,1.1,0.9,1.1,0.9
89,'NEWMAN GRO~4',69.0,1,1,1,1,1.01292515,-11.669914,1.1,0.9,1.1,0.9
90,'NEWMAN GRO~5',69.0,1,1,1,1,1.01344001,-11.60795,1.1,0.9,1.1,0.9
91,'NEWMAN GRO~6',69.0,1,1,1,1,1.01342022,-11.609267,1.1,0.9,1.1,0.9
92,'PETERSBURG~1',69.0,1,1,1,1,1.02532232,-10.133402,1.1,0.9,1.1,0.9
93,'PETERSBURG~2',69.0,1,1,1,1,1.02532887,-10.132499,1.1,0.9,1.1,0.9
94,'SAINT EDWA~1',69.0,1,1,1,1,1.01237833,-10.752839,1.1,0.9,1.1,0.9
95,'SAINT EDWA~2',69.0,1,1,1,1,1.0164187,-10.69792,1.1,0.9,1.1,0.9
96,'ALLIANCE 1 1',69.0,1,1,1,1,1.01075101,-17.554179,1.1,0.9,1.1,0.9
97,'ALLIANCE 2 1',69.0,1,1,1,1,1.01083779,-17.792276,1.1,0.9,1.1,0.9
98,'ALLIANCE 3 1',161.0,1,1,1,1,1.03487575,-17.33974,1.1,0.9,1.1,0.9
99,'ALLIANCE 3 2',161.0,1,1,1,1,1.03188491,-17.337441,1.1,0.9,1.1,0.9
100,'ALLIANCE 3 3',69.0,1,1,1,1,1.01447487,-17.149314,1.1,0.9,1.1,0.9
101,'ALLIANCE 3 4',161.0,1,1,1,1,1.03179181,-17.337496,1.1,0.9,1.1,0.9
102,'HEMINGFORD~1',69.0,1,1,1,1,1.01273417,-18.056442,1.1,0.9,1.1,0.9
103,'HEMINGFORD~2',69.0,1,1,1,1,1.01275575,-18.054727,1.1,0.9,1.1,0.9
104,'HEMINGFORD~3',69.0,1,1,1,1,1.01387024,-18.560423,1.1,0.9,1.1,0.9
105,'BUTTE 1 1',69.0,1,1,1,1,1.02807975,-4.012354,1.1,0.9,1.1,0.9
106,'BUTTE 1 2',69.0,1,1,1,1,1.02805603,-4.013749,1.1,0.9,1.1,0.9
107,'LYNCH 1 1',69.0,1,1,1,1,1.03205693,-4.065764,1.1,0.9,1.1,0.9
108,'LYNCH 2 1',69.0,1,1,1,1,1.03382409,-3.258568,1.1,0.9,1.1,0.9
109,'LYNCH 2 2',69.0,1,1,1,1,1.03383112,-3.257881,1.1,0.9,1.1,0.9
110,'NAPER 1',69.0,1,1,1,1,1.03162169,-3.842677,1.1,0.9,1.1,0.9
111,'SPENCER 1 1',69.0,1,1,1,1,1.02716923,-4.373778,1.1,0.9,1.1,0.9
112,'SPENCER 2 1',69.0,1,1,1,1,1.02509844,-4.78902,1.1,0.9,1.1,0.9
113,'AINSWORTH ~1',69.0,1,1,1,1,1.02722406,-9.998534,1.1,0.9,1.1,0.9
114,'AINSWORTH ~2',69.0,1,1,1,1,1.02613914,-9.91131,1.1,0.9,1.1,0.9
115,'AINSWORTH ~3',69.0,1,1,1,1,1.02612436,-9.912976,1.1,0.9,1.1,0.9
116,'JOHNSTOWN 1',69.0,1,1,1,1,1.02274609,-9.142154,1.1,0.9,1.1,0.9
117,'LONG PINE 1',69.0,1,1,1,1,1.02422011,-9.351608,1.1,0.9,1.1,0.9
118,'AMHERST 1 1',69.0,1,1,1,1,1.02378571,-1.389144,1.1,0.9,1.1,0.9
119,'AMHERST 2 1',69.0,1,1,1,1,1.01997817,-2.324714,1.1,0.9,1.1,0.9
120,'ELM CREEK ~1',69.0,1,1,1,1,1.02468789,-1.753697,1.1,0.9,1.1,0.9
121,'ELM CREEK ~2',69.0,1,1,1,1,1.02469385,-1.752949,1.1,0.9,1.1,0.9
122,'ELM CREEK ~3',69.0,1,1,1,1,1.02153623,-1.95636,1.1,0.9,1.1,0.9
123,'GIBBON 1 1',69.0,1,1,1,1,1.02773106,-2.385714,1.1,0.9,1.1,0.9
124,'GIBBON 2 1',69.0,1,1,1,1,1.03045392,-2.249848,1.1,0.9,1.1,0.9
125,'KEARNEY 1 1',69.0,1,1,1,1,1.01194775,-3.226014,1.1,0.9,1.1,0.9
126,'KEARNEY 1 2',69.0,1,1,1,1,1.01187646,-3.237869,1.1,0.9,1.1,0.9
127,'KEARNEY 2 1',161.0,1,1,1,1,1.04080105,1.803572,1.1,0.9,1.1,0.9
128,'KEARNEY 3 1',69.0,1,1,1,1,1.01047635,-3.50901,1.1,0.9,1.1,0.9
129,'KEARNEY 4 1',500.0,1,1,1,1,1.0443809,3.258785,1.1,0.9,1.1,0.9
130,'KEARNEY 4 2',161.0,1,1,1,1,1.04423451,2.713167,1.1,0.9,1.1,0.9
131,'KEARNEY 4 3',500.0,1,1,1,1,1.04430234,3.251413,1.1,0.9,1.1,0.9
132,'KEARNEY 5 1',161.0,1,1,1,1,1.03926706,0.968097,1.1,0.9,1.1,0.9
133,'KEARNEY 5 ~1',161.0,1,1,1,1,1.03926706,0.968097,1.1,0.9,1.1,0.9
134,'KEARNEY 5 2',69.0,1,1,1,1,1.03557146,-1.668106,1.1,0.9,1.1,0.9
135,'KEARNEY 5 3',161.0,1,1,1,1,1.03936613,0.986583,1.1,0.9,1.1,0.9
136,'KEARNEY 6 1',69.0,1,1,1,1,1.00945258,-3.570541,1.1,0.9,1.1,0.9
137,'KEARNEY 7 1',69.0,1,1,1,1,1.01305974,-3.309682,1.1,0.9,1.1,0.9
138,'KEARNEY 8 1',161.0,1,1,1,1,1.03911507,1.289931,1.1,0.9,1.1,0.9
139,'PLEASANTON~1',69.0,1,1,1,1,1.02472568,-2.428933,1.1,0.9,1.1,0.9
140,'PLEASANTON~2',69.0,1,1,1,1,1.02849007,-2.425867,1.1,0.9,1.1,0.9
141,'RAVENNA 1 1',69.0,1,1,1,1,1.03699505,-2.513125,1.1,0.9,1.1,0.9
142,'RAVENNA 1 2',69.0,1,1,1,1,1.0369873,-2.514277,1.1,0.9,1.1,0.9
143,'RAVENNA 2 1',69.0,1,1,1,1,1.03362322,-2.520215,1.1,0.9,1.1,0.9
144,'RAVENNA 3 1',161.0,1,1,1,1,1.03892457,-1.905525,1.1,0.9,1.1,0.9
145,'RAVENNA 3 2',69.0,1,1,1,1,1.03855824,-2.60187,1.1,0.9,1.1,0.9
146,'RAVENNA 3 3',161.0,1,1,1,1,1.03898752,-1.891247,1.1,0.9,1.1,0.9
147,'SHELTON 1 1',69.0,1,1,1,1,1.03010952,-2.779559,1.1,0.9,1.1,0.9
148,'SHELTON 2 1',69.0,1,1,1,1,1.03593266,-2.157515,1.1,0.9,1.1,0.9
149,'CRAIG 1',69.0,1,1,1,1,1.02296591,-5.198612,1.1,0.9,1.1,0.9
150,'CRAIG 2',69.0,1,1,1,1,1.02296901,-5.198215,1.1,0.9,1.1,0.9
151,'DECATUR 1',69.0,1,1,1,1,1.01549935,-2.98417,1.1,0.9,1.1,0.9
152,'HERMAN 1 1',69.0,1,1,1,1,1.02534425,-7.347615,1.1,0.9,1.1,0.9
153,'LYONS 1 1',69.0,1,1,1,1,1.01381826,-3.189555,1.1,0.9,1.1,0.9
154,'LYONS 1 2',69.0,1,1,1,1,1.0138092,-3.190116,1.1,0.9,1.1,0.9
155,'LYONS 2 1',69.0,1,1,1,1,1.01889205,-4.937547,1.1,0.9,1.1,0.9
156,'LYONS 2 2',69.0,1,1,1,1,1.01887918,-4.939046,1.1,0.9,1.1,0.9
157,'OAKLAND 1 1',69.0,1,1,1,1,1.01850927,-8.165138,1.1,0.9,1.1,0.9
158,'OAKLAND 2 1',69.0,1,1,1,1,1.0189538,-6.419466,1.1,0.9,1.1,0.9
159,'OAKLAND 3 1',69.0,1,1,1,1,1.0194689,-6.124252,1.1,0.9,1.1,0.9
160,'OAKLAND 3 2',69.0,1,1,1,1,1.01945806,-6.125112,1.1,0.9,1.1,0.9
161,'TEKAMAH 1 1',69.0,1,1,1,1,1.02897692,-6.074165,1.1,0.9,1.1,0.9
162,'TEKAMAH 2 1',69.0,1,1,1,1,1.02622056,-5.790919,1.1,0.9,1.1,0.9
163,'TEKAMAH 3 1',161.0,1,1,1,1,1.03872454,-5.433456,1.1,0.9,1.1,0.9
164,'TEKAMAH 3 2',69.0,1,1,1,1,1.03153229,-6.214403,1.1,0.9,1.1,0.9
165,'TEKAMAH 3 3',161.0,1,1,1,1,1.03870916,-5.435417,1.1,0.9,1.1,0.9
166,'BELLWOOD 1',69.0,1,1,1,1,1.01737583,-10.734672,1.1,0.9,1.1,0.9
167,'BRAINARD 1 1',69.0,1,1,1,1,1.02863705,-9.806117,1.1,0.9,1.1,0.9
168,'BRAINARD 2 1',69.0,1,1,1,1,1.02774489,-9.656683,1.1,0.9,1.1,0.9
169,'COLUMBUS 1 1',69.0,1,1,1,1,1.0004859,-12.060005,1.1,0.9,1.1,0.9
170,'COLUMBUS 2 1',161.0,1,1,1,1,1.03185785,-10.173897,1.1,0.9,1.1,0.9
171,'COLUMBUS 2 2',161.0,1,1,1,1,1.03196251,-10.163198,1.1,0.9,1.1,0.9
172,'COLUMBUS 3 1',69.0,1,1,1,1,0.99647349,-12.137302,1.1,0.9,1.1,0.9
173,'COLUMBUS 3 2',69.0,1,1,1,1,0.99620229,-12.148415,1.1,0.9,1.1,0.9
174,'COLUMBUS 4 1',161.0,1,1,1,1,1.03315222,-10.560568,1.1,0.9,1.1,0.9
175,'COLUMBUS 4 2',161.0,1,1,1,1,1.03302717,-10.571458,1.1,0.9,1.1,0.9
176,'David City~1',69.0,1,1,1,1,1.03280354,-10.167756,1.1,0.9,1.1,0.9
177,'David City~5',69.0,1,1,1,1,1.03168356,-10.098504,1.1,0.9,1.1,0.9
178,'DAVID CITY~8',69.0,1,1,1,1,1.02175343,-10.552643,1.1,0.9,1.1,0.9
179,'RISING CIT~1',69.0,1,1,1,1,1.03139126,-10.0095,1.1,0.9,1.1,0.9
180,'RISING CIT~2',69.0,1,1,1,1,1.03138959,-10.009781,1.1,0.9,1.1,0.9
181,'SHELBY 1 1',69.0,1,1,1,1,1.00893664,-11.710916,1.1,0.9,1.1,0.9
182,'SHELBY 2 1',69.0,1,1,1,1,1.0296154,-9.658066,1.1,0.9,1.1,0.9
183,'ASHLAND 1 1',69.0,1,1,1,1,1.01448834,-8.395815,1.1,0.9,1.1,0.9
184,'ASHLAND 2 1',69.0,1,1,1,1,1.03299284,-7.752669,1.1,0.9,1.1,0.9
185,'ASHLAND 3 1',69.0,1,1,1,1,1.01377094,-8.295567,1.1,0.9,1.1,0.9
186,'AVOCA 1 1',69.0,1,1,1,1,1.02508879,-7.193922,1.1,0.9,1.1,0.9
187,'EAGLE 1 1',69.0,1,1,1,1,1.01708436,-7.551513,1.1,0.9,1.1,0.9
188,'EAGLE 2 1',69.0,1,1,1,1,1.0119729,-7.653466,1.1,0.9,1.1,0.9
189,'EAGLE 2 2',69.0,1,1,1,1,1.01195431,-7.655227,1.1,0.9,1.1,0.9
190,'EAGLE 3 1',69.0,1,1,1,1,1.01145959,-7.771297,1.1,0.9,1.1,0.9
191,'EAGLE 3 2',69.0,1,1,1,1,1.01141071,-7.774753,1.1,0.9,1.1,0.9
192,'GREENWOOD ~1',69.0,1,1,1,1,1.01536214,-7.623771,1.1,0.9,1.1,0.9
193,'LOUISVILLE 1',69.0,1,1,1,1,1.00865579,-10.306293,1.1,0.9,1.1,0.9
194,'MURDOCK 1 1',69.0,1,1,1,1,1.03013515,-7.407872,1.1,0.9,1.1,0.9
195,'MURRAY 1 1',69.0,1,1,1,1,1.03795183,-7.788844,1.1,0.9,1.1,0.9
196,'PLATTSMOUT~1',69.0,1,1,1,1,1.02432489,-10.484375,1.1,0.9,1.1,0.9
197,'PLATTSMOUT~2',69.0,1,1,1,1,1.02270949,-10.38651,1.1,0.9,1.1,0.9
198,'PLATTSMOUT~3',69.0,1,1,1,1,1.03430343,-11.006582,1.1,0.9,1.1,0.9
199,'UNION 1 1',69.0,1,1,1,1,1.0376184,-7.228157,1.1,0.9,1.1,0.9
200,'WAVERLY 1 1',69.0,1,1,1,1,1.01596081,-8.321393,1.1,0.9,1.1,0.9
...
0 / END OF BUS DATA BEGIN LOAD DATA
1,'1',1,1,1,1.23,0.153,0.0,0.0,0.0,0.0,1,1,0
4,'1',1,1,1,2.852,1.134,0.0,0.0,0.0,0.0,1,1,0
5,'1',1,1,1,1.788,0.645,0.0,0.0,0.0,0.0,1,1,0
6,'1',1,1,1,2.619,0.914,0.0,0.0,0.0,0.0,1,1,0
8,'1',1,1,1,21.59,4.929,0.0,0.0,0.0,0.0,1,1,0
10,'1',1,1,1,19.016,13.579,0.0,0.0,0.0,0.0,1,1,0
11,'1',1,1,1,15.692,4.79,0.0,0.0,0.0,0.0,1,1,0
14,'1',1,1,1,20.327,6.184,0.0,0.0,0.0,0.0,1,1,0
16,'1',1,1,1,0.898,0.313,0.0,0.0,0.0,0.0,1,1,0
17,'1',1,1,1,1.554,0.115,0.0,0.0,0.0,0.0,1,1,0
18,'1',1,1,1,2.59,0.623,0.0,0.0,0.0,0.0,1,1,0
19,'1',1,1,1,1.931,0.324,0.0,0.0,0.0,0.0,1,1,0
20,'1',1,1,1,1.275,0.545,0.0,0.0,0.0,0.0,1,1,0
21,'1',1,1,1,1.435,0.147,0.0,0.0,0.0,0.0,1,1,0
22,'1',1,1,1,1.321,0.255,0.0,0.0,0.0,0.0,1,1,0
23,'1',1,1,1,3.458,0.44,0.0,0.0,0.0,0.0,1,1,0
25,'1',1,1,1,1.848,0.407,0.0,0.0,0.0,0.0,1,1,0
26,'1',1,1,1,2.466,0.8,0.0,0.0,0.0,0.0,1,1,0
28,'1',1,1,1,1.848,0.098,0.0,0.0,0.0,0.0,1,1,0
30,'1',1,1,1,1.368,0.518,0.0,0.0,0.0,0.0,1,1,0
31,'1',1,1,1,0.684,0.123,0.0,0.0,0.0,0.0,1,1,0
32,'1',1,1,1,2.56,0.49,0.0,0.0,0.0,0.0,1,1,0
33,'1',1,1,1,1.716,0.311,0.0,0.0,0.0,0.0,1,1,0
34,'1',1,1,1,1.596,1.548,0.0,0.0,0.0,0.0,1,1,0
35,'1',1,1,1,1.52,0.072,0.0,0.0,0.0,0.0,1,1,0
37,'1',1,1,1,2.244,1.293,0.0,0.0,0.0,0.0,1,1,0
38,'1',1,1,1,0.798,0.367,0.0,0.0,0.0,0.0,1,1,0
39,'1',1,1,1,1.496,0.37,0.0,0.0,0.0,0.0,1,1,0
40,'1',1,1,1,2.51,0.951,0.0,0.0,0.0,0.0,1,1,0
43,'1',1,1,1,4.167,1.982,0.0,0.0,0.0,0.0,1,1,0
45,'1',1,1,1,2.165,0.747,0.0,0.0,0.0,0.0,1,1,0
46,'1',1,1,1,0.708,0.051,0.0,0.0,0.0,0.0,1,1,0
47,'1',1,1,1,2.281,0.321,0.0,0.0,0.0,0.0,1,1,0
48,'1',1,1,1,1.628,0.1,0.0,0.0,0.0,0.0,1,1,0
49,'1',1,1,1,2.093,0.635,0.0,0.0,0.0,0.0,1,1,0
51,'1',1,1,1,1.74,0.259,0.0,0.0,0.0,0.0,1,1,0
52,'1',1,1,1,2.358,0.351,0.0,0.0,0.0,0.0,1,1,0
53,'1',1,1,1,0.457,0.215,0.0,0.0,0.0,0.0,1,1,0
54,'1',1,1,1,0.829,0.155,0.0,0.0,0.0,0.0,1,1,0
56,'1',1,1,1,1.47,0.563,0.0,0.0,0.0,0.0,1,1,0
58,'1',1,1,1,0.925,0.108,0.0,0.0,0.0,0.0,1,1,0
59,'1',1,1,1,0.582,0.285,0.0,0.0,0.0,0.0,1,1,0
60,'1',1,1,1,1.8,0.754,0.0,0.0,0.0,0.0,1,1,0
61,'1',1,1,1,2.726,0.77,0.0,0.0,0.0,0.0,1,1,0
62,'1',1,1,1,2.342,0.114,0.0,0.0,0.0,0.0,1,1,0
63,'1',1,1,1,1.16,0.601,0.0,0.0,0.0,0.0,1,1,0
65,'1',1,1,1,14.55,4.155,0.0,0.0,0.0,0.0,1,1,0
69,'1',1,1,1,10.295,1.854,0.0,0.0,0.0,0.0,1,1,0
70,'1',1,1,1,12.979,3.196,0.0,0.0,0.0,0.0,1,1,0
71,'1',1,1,1,0.696,0.05,0.0,0.0,0.0,0.0,1,1,0
72,'1',1,1,1,4.926,2.344,0.0,0.0,0.0,0.0,1,1,0
73,'1',1,1,1,2.46,1.253,0.0,0.0,0.0,0.0,1,1,0
74,'1',1,1,1,1.514,0.567,0.0,0.0,0.0,0.0,1,1,0
75,'1',1,1,1,2.649,0.216,0.0,0.0,0.0,0.0,1,1,0
76,'1',1,1,1,1.608,0.263,0.0,0.0,0.0,0.0,1,1,0
77,'1',1,1,1,1.92,0.575,0.0,0.0,0.0,0.0,1,1,0
78,'1',1,1,1,1.322,0.028,0.0,0.0,0.0,0.0,1,1,0
80,'1',1,1,1,3.136,2.156,0.0,0.0,0.0,0.0,1,1,0
82,'1',1,1,1,2.274,0.286,0.0,0.0,0.0,0.0,1,1,0
83,'1',1,1,1,4.7,1.773,0.0,0.0,0.0,0.0,1,1,0
84,'1',1,1,1,1.074,0.372,0.0,0.0,0.0,0.0,1,1,0
85,'1',1,1,1,0.714,0.261,0.0,0.0,0.0,0.0,1,1,0
87,'1',1,1,1,0.894,0.135,0.0,0.0,0.0,0.0,1,1,0
88,'1',1,1,1,0.894,0.293,0.0,0.0,0.0,0.0,1,1,0
91,'1',1,1,1,2.41,1.258,0.0,0.0,0.0,0.0,1,1,0
92,'1',1,1,1,1.669,0.251,0.0,0.0,0.0,0.0,1,1,0
94,'1',1,1,1,1.74,0.698,0.0,0.0,0.0,0.0,1,1,0
95,'1',1,1,1,0.978,0.263,0.0,0.0,0.0,0.0,1,1,0
96,'1',1,1,1,7.758,3.824,0.0,0.0,0.0,0.0,1,1,0
97,'1',1,1,1,7.758,2.347,0.0,0.0,0.0,0.0,1,1,0
101,'1',1,1,1,10.649,1.8,0.0,0.0,0.0,0.0,1,1,0
102,'1',1,1,1,3.372,1.292,0.0,0.0,0.0,0.0,1,1,0
104,'1',1,1,1,1.152,1.047,0.0,0.0,0.0,0.0,1,1,0
106,'1',1,1,1,2.633,1.546,0.0,0.0,0.0,0.0,1,1,0
107,'1',1,1,1,0.367,0.114,0.0,0.0,0.0,0.0,1,1,0
108,'1',1,1,1,1.216,0.346,0.0,0.0,0.0,0.0,1,1,0
110,'1',1,1,1,0.594,0.285,0.0,0.0,0.0,0.0,1,1,0
111,'1',1,1,1,0.895,0.227,0.0,0.0,0.0,0.0,1,1,0
112,'1',1,1,1,0.673,0.367,0.0,0.0,0.0,0.0,1,1,0
113,'1',1,1,1,3.888,0.861,0.0,0.0,0.0,0.0,1,1,0
115,'1',1,1,1,3.167,0.582,0.0,0.0,0.0,0.0,1,1,0
116,'1',1,1,1,0.728,0.09,0.0,0.0,0.0,0.0,1,1,0
117,'1',1,1,1,1.297,0.461,0.0,0.0,0.0,0.0,1,1,0
118,'1',1,1,1,1.008,0.035,0.0,0.0,0.0,0.0,1,1,0
119,'1',1,1,1,2.73,0.661,0.0,0.0,0.0,0.0,1,1,0
120,'1',1,1,1,1.351,0.314,0.0,0.0,0.0,0.0,1,1,0
122,'1',1,1,1,1.787,0.058,0.0,0.0,0.0,0.0,1,1,0
123,'1',1,1,1,2.518,0.774,0.0,0.0,0.0,0.0,1,1,0
124,'1',1,1,1,9.376,5.635,0.0,0.0,0.0,0.0,1,1,0
126,'1',1,1,1,18.768,2.656,0.0,0.0,0.0,0.0,1,1,0
127,'1',1,1,1,11.304,3.085,0.0,0.0,0.0,0.0,1,1,0
128,'1',1,1,1,18.171,12.122,0.0,0.0,0.0,0.0,1,1,0
131,'1',1,1,1,14.284,4.106,0.0,0.0,0.0,0.0,1,1,0
134,'1',1,1,1,13.664,1.644,0.0,0.0,0.0,0.0,1,1,0
136,'1',1,1,1,15.8,4.969,0.0,0.0,0.0,0.0,1,1,0
137,'1',1,1,1,11.041,3.414,0.0,0.0,0.0,0.0,1,1,0
138,'1',1,1,1,13.532,4.63,0.0,0.0,0.0,0.0,1,1,0
139,'1',1,1,1,0.696,0.077,0.0,0.0,0.0,0.0,1,1,0
139,'2',1,1,1,0.56,0.172,0.0,0.0,0.0,0.0,1,1,0
140,'1',1,1,1,1.292,0.476,0.0,0.0,0.0,0.0,1,1,0
142,'1',1,1,1,1.893,0.343,0.0,0.0,0.0,0.0,1,1,0
143,'1',1,1,1,2.379,0.658,0.0,0.0,0.0,0.0,1,1,0
145,'1',1,1,1,1.686,0.412,0.0,0.0,0.0,0.0,1,1,0
147,'1',1,1,1,1.449,0.639,0.0,0.0,0.0,0.0,1,1,0
148,'1',1,1,1,1.97,0.279,0.0,0.0,0.0,0.0,1,1,0
149,'1',1,1,1,0.651,0.123,0.0,0.0,0.0,0.0,1,1,0
151,'1',1,1,1,2.87,0.543,0.0,0.0,0.0,0.0,1,1,0
152,'1',1,1,1,0.843,0.29,0.0,0.0,0.0,0.0,1,1,0
152,'2',1,1,1,0.442,0.217,0.0,0.0,0.0,0.0,1,1,0
154,'1',1,1,1,0.978,0.569,0.0,0.0,0.0,0.0,1,1,0
156,'1',1,1,1,1.32,0.332,0.0,0.0,0.0,0.0,1,1,0
156,'2',1,1,1,1.173,0.225,0.0,0.0,0.0,0.0,1,1,0
157,'1',1,1,1,2.028,0.917,0.0,0.0,0.0,0.0,1,1,0
158,'1',1,1,1,2.213,0.286,0.0,0.0,0.0,0.0,1,1,0
160,'1',1,1,1,1.715,0.593,0.0,0.0,0.0,0.0,1,1,0
161,'1',1,1,1,3.093,1.02,0.0,0.0,0.0,0.0,1,1,0
162,'1',1,1,1,1.92,0.774,0.0,0.0,0.0,0.0,1,1,0
165,'1',1,1,1,3.294,0.577,0.0,0.0,0.0,0.0,1,1,0
166,'1',1,1,1,2.564,2.037,0.0,0.0,0.0,0.0,1,1,0
167,'1',1,1,1,1.116,0.421,0.0,0.0,0.0,0.0,1,1,0
168,'1',1,1,1,1.158,0.174,0.0,0.0,0.0,0.0,1,1,0
169,'1',1,1,1,26.99,3.869,0.0,0.0,0.0,0.0,1,1,0
170,'1',1,1,1,20.623,4.676,0.0,0.0,0.0,0.0,1,1,0
173,'1',1,1,1,21.636,20.615,0.0,0.0,0.0,0.0,1,1,0
175,'1',1,1,1,21.362,8.185,0.0,0.0,0.0,0.0,1,1,0
176,'1',1,1,1,3.868,0.425,0.0,0.0,0.0,0.0,1,1,0
177,'1',1,1,1,3.054,1.419,0.0,0.0,0.0,0.0,1,1,0
178,'1',1,1,1,4.782,3.43,0.0,0.0,0.0,0.0,1,1,0
179,'1',1,1,1,0.522,0.471,0.0,0.0,0.0,0.0,1,1,0
180,'1',1,1,1,0.522,0.032,0.0,0.0,0.0,0.0,1,1,0
181,'1',1,1,1,0.942,0.216,0.0,0.0,0.0,0.0,1,1,0
182,'1',1,1,1,3.734,2.106,0.0,0.0,0.0,0.0,1,1,0
183,'1',1,1,1,3.468,0.835,0.0,0.0,0.0,0.0,1,1,0
184,'1',1,1,1,4.282,0.199,0.0,0.0,0.0,0.0,1,1,0
185,'1',1,1,1,5.496,3.016,0.0,0.0,0.0,0.0,1,1,0
186,'1',1,1,1,1.014,0.031,0.0,0.0,0.0,0.0,1,1,0
187,'1',1,1,1,2.457,0.859,0.0,0.0,0.0,0.0,1,1,0
187,'2',1,1,1,0.665,0.18,0.0,0.0,0.0,0.0,1,1,0
189,'1',1,1,1,3.245,0.962,0.0,0.0,0.0,0.0,1,1,0
191,'1',1,1,1,6.144,2.967,0.0,0.0,0.0,0.0,1,1,0
192,'1',1,1,1,1.854,0.123,0.0,0.0,0.0,0.0,1,1,0
193,'1',1,1,1,4.304,0.308,0.0,0.0,0.0,0.0,1,1,0
194,'1',1,1,1,0.762,0.253,0.0,0.0,0.0,0.0,1,1,0
195,'1',1,1,1,0.618,0.134,0.0,0.0,0.0,0.0,1,1,0
195,'2',1,1,1,0.596,0.21,0.0,0.0,0.0,0.0,1,1,0
196,'1',1,1,1,12.366,1.2,0.0,0.0,0.0,0.0,1,1,0
197,'1',1,1,1,15.996,11.08,0.0,0.0,0.0,0.0,1,1,0
198,'1',1,1,1,10.985,5.295,0.0,0.0,0.0,0.0,1,1,0
199,'1',1,1,1,0.87,0.386,0.0,0.0,0.0,0.0,1,1,0
199,'2',1,1,1,0.543,0.212,0.0,0.0,0.0,0.0,1,1,0
200,'1',1,1,1,4.027,2.624,0.0,0.0,0.0,0.0,1,1,0
200,'2',1,1,1,0.3,0.07,0.0,0.0,0.0,0.0,1,1,0
201,'1',1,1,1,3.606,0.511,0.0,0.0,0.0,0.0,1,1,0
201,'2',1,1,1,0.623,0.057,0.0,0.0,0.0,0.0,1,1,0
203,'1',1,1,1,3.165,1.232,0.0,0.0,0.0,0.0,1,1,0
205,'1',1,1,1,3.506,0.674,0.0,0.0,0.0,0.0,1,1,0
206,'1',1,1,1,2.773,1.478,0.0,0.0,0.0,0.0,1,1,0
207,'1',1,1,1,0.828,0.367,0.0,0.0,0.0,0.0,1,1,0
208,'1',1,1,1,2.108,0.589,0.0,0.0,0.0,0.0,1,1,0
209,'1',1,1,1,2.033,0.771,0.0,0.0,0.0,0.0,1,1,0
209,'2',1,1,1,1.422,0.03,0.0,0.0,0.0,0.0,1,1,0
210,'1',1,1,1,2.014,0.593,0.0,0.0,0.0,0.0,1,1,0
212,'1',1,1,1,3.734,0.356,0.0,0.0,0.0,0.0,1,1,0
213,'1',1,1,1,2.298,0.563,0.0,0.0,0.0,0.0,1,1,0
215,'1',1,1,1,2.398,0.308,0.0,0.0,0.0,0.0,1,1,0
216,'1',1,1,1,1.409,0.384,0.0,0.0,0.0,0.0,1,1,0
217,'1',1,1,1,1.554,0.38,0.0,0.0,0.0,0.0,1,1,0
218,'1',1,1,1,1.751,0.778,0.0,0.0,0.0,0.0,1,1,0
219,'1',1,1,1,0.695,0.411,0.0,0.0,0.0,0.0,1,1,0
220,'1',1,1,1,1.737,0.384,0.0,0.0,0.0,0.0,1,1,0
222,'1',1,1,1,1.679,1.133,0.0,0.0,0.0,0.0,1,1,0
223,'1',1,1,1,2.09,0.326,0.0,0.0,0.0,0.0,1,1,0
224,'1',1,1,1,2.861,0.623,0.0,0.0,0.0,0.0,1,1,0
225,'1',1,1,1,1.184,0.617,0.0,0.0,0.0,0.0,1,1,0
227,'1',1,1,1,0.828,0.134,0.0,0.0,0.0,0.0,1,1,0
228,'1',1,1,1,1.48,0.825,0.0,0.0,0.0,0.0,1,1,0
229,'1',1,1,1,10.986,0.966,0.0,0.0,0.0,0.0,1,1,0
230,'1',1,1,1,10.986,6.103,0.0,0.0,0.0,0.0,1,1,0
231,'1',1,1,1,11.849,1.05,0.0,0.0,0.0,0.0,1,1,0
233,'1',1,1,1,18.31,3.921,0.0,0.0,0.0,0.0,1,1,0
235,'1',1,1,1,0.56,0.319,0.0,0.0,0.0,0.0,1,1,0
237,'1',1,1,1,0.87,0.414,0.0,0.0,0.0,0.0,1,1,0
238,'1',1,1,1,2.668,1.187,0.0,0.0,0.0,0.0,1,1,0
240,'1',1,1,1,2.557,0.337,0.0,0.0,0.0,0.0,1,1,0
240,'2',1,1,1,0.497,0.124,0.0,0.0,0.0,0.0,1,1,0
241,'1',1,1,1,1.974,0.499,0.0,0.0,0.0,0.0,1,1,0
243,'1',1,1,1,0.778,0.574,0.0,0.0,0.0,0.0,1,1,0
244,'1',1,1,1,1.278,0.121,0.0,0.0,0.0,0.0,1,1,0
245,'1',1,1,1,0.922,0.141,0.0,0.0,0.0,0.0,1,1,0
246,'1',1,1,1,1.035,0.146,0.0,0.0,0.0,0.0,1,1,0
247,'1',1,1,1,0.68,0.19,0.0,0.0,0.0,0.0,1,1,0
248,'1',1,1,1,1.161,0.338,0.0,0.0,0.0,0.0,1,1,0
250,'1',1,1,1,2.952,0.384,0.0,0.0,0.0,0.0,1,1,0
253,'1',1,1,1,3.24,1.319,0.0,0.0,0.0,0.0,1,1,0
254,'1',1,1,1,1.944,0.795,0.0,0.0,0.0,0.0,1,1,0
256,'1',1,1,1,1.191,0.343,0.0,0.0,0.0,0.0,1,1,0
257,'1',1,1,1,1.0,0.548,0.0,0.0,0.0,0.0,1,1,0
258,'1',1,1,1,0.773,0.042,0.0,0.0,0.0,0.0,1,1,0
261,'1',1,1,1,0.983,0.346,0.0,0.0,0.0,0.0,1,1,0
261,'2',1,1,1,0.87,0.268,0.0,0.0,0.0,0.0,1,1,0
...
0 / END OF LOAD DATA BEGIN FIXED SHUNT DATA
0 / END OF FIXED SHUNT DATA BEGIN GENERATOR DATA
1239,'1',107.719,22.047,55.38,-38.77,1.04,0,130.56,0.0,1.0,0.0,0.0,1.0,1,100.0,108.8,29.3,1,1.0,0,1.0,0,1.0,0,1.0,0,1.0
1243,'1',56.137,-10.433,26.42,-18.49,1.04,0,68.04,0.0,1.0,0.0,0.0,1.0,1,100.0,56.7,18.43,1,1.0,0,1.0,0,1.0,0,1.0,0,1.0
1247,'1',86.858,14.592,44.66,-31.26,1.04,0,105.28,0.0,1.0,0.0,0.0,1.0,1,100.0,87.73,19.92,1,1.0,0,1.0,0,1.0,0,1.0,0,1.0
1248,'1',86.858,15.171,44.66,-31.26,1.04,0,105.28,0.0,1.0,0.0,0.0,1.0,1,100.0,87.73,20.01,1,1.0,0,1.0,0,1.0,0,1.0,0,1.0
1249,'1',86.858,14.448,44.66,-31.26,1.04,0,105.28,0.0,1.0,0.0,0.0,1.0,1,100.0,87.73,18.13,1,1.0,0,1.0,0,1.0,0,1.0,0,1.0
1253,'1',1.162,0.097,0.349,-0.349,1.04,0,1.44,0.0,1.0,0.0,0.0,1.0,1,100.0,1.162,0.0,1,1.0,0,1.0,0,1.0,0,1.0,0,1.0
1253,'2',1.039,0.097,0.312,-0.312,1.04,0,1.44,0.0,1.0,0.0,0.0,1.0,1,100.0,1.039,0.0,1,1.0,0,1.0,0,1.0,0,1.0,0,1.0
1256,'1',1.93,0.579,0.579,-0.579,1.04,0,12.6,0.0,1.0,0.0,0.0,1.0,1,100.0,1.93,0.0,1,1.0,0,1.0,0,1.0,0,1.0,1,1.0
1259,'1',66.176,4.896,34.02,-23.81,1.04,0,80.208,0.0,1.0,0.0,0.0,1.0,1,100.0,66.84,25.01,1,1.0,0,1.0,0,1.0,0,1.0,0,1.0
1260,'1',66.176,4.044,34.02,-23.81,1.04,0,80.208,0.0,1.0,0.0,0.0,1.0,1,100.0,66.84,8.44,1,1.0,0,1.0,0,1.0,0,1.0,0,1.0
1261,'1',0.0,0.0,34.02,-23.81,1.04,0,80.208,0.0,1.0,0.0,0.0,1.0,0,100.0,66.84,13.17,1,1.0,0,1.0,0,1.0,0,1.0,0,1.0
1262,'1',66.176,8.641,34.02,-23.81,1.04,0,80.208,0.0,1.0,0.0,0.0,1.0,1,100.0,66.84,21.55,1,1.0,0,1.0,0,1.0,0,1.0,0,1.0
1263,'1',66.176,3.219,34.02,-23.81,1.04,0,80.208,0.0,1.0,0.0,0.0,1.0,1,100.0,66.84,29.81,1,1.0,0,1.0,0,1.0,0,1.0,0,1.0
1268,'1',519.01,29.054,317.49,-222.24,1.04,1265,817.56,0.0,1.0,0.0,0.0,1.0,1,100.0,681.3,282.42,1,1.0,0,1.0,0,1.0,0,1.0,0,1.0
1269,'1',448.88,29.054,317.49,-222.24,1.04,1265,817.56,0.0,1.0,0.0,0.0,1.0,1,100.0,681.3,212.29,1,1.0,0,1.0,0,1.0,0,1.0,0,1.0
1271,'1',0.0,0.0,0.7,-0.49,1.04,0,1.8,0.0,1.0,0.0,0.0,1.0,0,100.0,1.5,0.59,1,1.0,0,1.0,0,1.0,0,1.0,0,1.0
1271,'2',4.455,2.1,2.1,-1.47,1.04,0,5.4,0.0,1.0,0.0,0.0,1.0,1,100.0,4.5,1.87,1,1.0,0,1.0,0,1.0,0,1.0,0,1.0
1273,'1',2.109,1.08,1.08,-0.76,1.04,0,2.55,0.0,1.0,0.0,0.0,1.0,1,100.0,2.13,0.88,1,1.0,0,1.0,0,1.0,0,1.0,0,1.0
1273,'2',2.109,1.08,1.08,-0.76,1.04,0,2.55,0.0,1.0,0.0,0.0,1.0,1,100.0,2.13,0.56,1,1.0,0,1.0,0,1.0,0,1.0,0,1.0
1274,'1',2.109,1.08,1.08,-0.76,1.04,0,2.55,0.0,1.0,0.0,0.0,1.0,1,100.0,2.13,0.49,1,1.0,0,1.0,0,1.0,0,1.0,0,1.0
1275,'1',0.0,0.0,1.08,-0.76,1.04,0,2.55,0.0,1.0,0.0,0.0,1.0,0,100.0,2.13,1.06,1,1.0,0,1.0,0,1.0,0,1.0,0,1.0
1278,'1',26.732,11.246,13.74,-9.62,1.04,0,32.4,0.0,1.0,0.0,0.0,1.0,1,100.0,27.0,4.91,1,1.0,0,1.0,0,1.0,0,1.0,0,1.0
1281,'1',0.0,0.0,3.68,-2.58,1.04,0,9.48,0.0,1.0,0.0,0.0,1.0,0,100.0,7.9,3.55,1,1.0,0,1.0,0,1.0,0,1.0,0,1.0
1284,'1',0.271,0.081,0.081,-0.081,1.04,0,1.8,0.0,1.0,0.0,0.0,1.0,1,100.0,0.271,0.0,1,1.0,0,1.0,0,1.0,0,1.0,1,1.0
1284,'2',0.381,0.114,0.114,-0.114,1.04,0,1.8,0.0,1.0,0.0,0.0,1.0,1,100.0,0.381,0.0,1,1.0,0,1.0,0,1.0,0,1.0,1,1.0
1287,'1',32.345,3.498,16.63,-11.64,1.04,0,39.2,0.0,1.0,0.0,0.0,1.0,1,100.0,32.67,4.0,1,1.0,0,1.0,0,1.0,0,1.0,0,1.0
1287,'2',0.0,0.0,16.63,-11.64,1.04,0,39.2,0.0,1.0,0.0,0.0,1.0,0,100.0,32.67,5.16,1,1.0,0,1.0,0,1.0,0,1.0,0,1.0
1288,'1',0.0,0.0,16.63,-11.64,1.04,0,39.2,0.0,1.0,0.0,0.0,1.0,0,100.0,32.67,6.36,1,1.0,0,1.0,0,1.0,0,1.0,0,1.0
1292,'1',88.404,-28.431,53.29,-37.3,1.04,0,137.22,0.0,1.0,0.0,0.0,1.0,1,100.0,114.35,48.69,1,1.0,0,1.0,0,1.0,0,1.0,0,1.0
1293,'1',67.924,-19.248,53.29,-37.3,1.04,0,137.22,0.0,1.0,0.0,0.0,1.0,1,100.0,114.35,28.21,1,1.0,0,1.0,0,1.0,0,1.0,0,1.0
1297,'1',4.059,0.078,2.09,-1.46,1.04,0,4.92,0.0,1.0,0.0,0.0,1.0,1,100.0,4.1,0.92,1,1.0,0,1.0,0,1.0,0,1.0,0,1.0
1297,'2',4.059,0.078,2.09,-1.46,1.04,0,4.92,0.0,1.0,0.0,0.0,1.0,1,100.0,4.1,1.14,1,1.0,0,1.0,0,1.0,0,1.0,0,1.0
1298,'1',4.059,0.273,2.09,-1.46,1.04,0,4.92,0.0,1.0,0.0,0.0,1.0,1,100.0,4.1,0.81,1,1.0,0,1.0,0,1.0,0,1.0,0,1.0
1298,'2',4.059,0.273,2.09,-1.46,1.04,0,4.92,0.0,1.0,0.0,0.0,1.0,1,100.0,4.1,1.13,1,1.0,0,1.0,0,1.0,0,1.0,0,1.0
1299,'1',4.059,0.344,2.09,-1.46,1.04,0,4.92,0.0,1.0,0.0,0.0,1.0,1,100.0,4.1,1.8,1,1.0,0,1.0,0,1.0,0,1.0,0,1.0
1299,'2',4.059,0.344,2.09,-1.46,1.04,0,4.92,0.0,1.0,0.0,0.0,1.0,1,100.0,4.1,1.08,1,1.0,0,1.0,0,1.0,0,1.0,0,1.0
1300,'1',0.75,-0.225,0.225,-0.225,1.04,0,1.8,0.0,1.0,0.0,0.0,1.0,1,100.0,0.75,0.0,1,1.0,0,1.0,0,1.0,0,1.0,0,1.0
1300,'2',18.072,-1.598,5.422,-5.422,1.04,0,27.0,0.0,1.0,0.0,0.0,1.0,1,100.0,18.072,0.0,1,1.0,0,1.0,0,1.0,0,1.0,0,1.0
1303,'1',0.644,0.022,0.3,-0.21,1.04,0,0.78,0.0,1.0,0.0,0.0,1.0,1,100.0,0.65,0.28,1,1.0,0,1.0,0,1.0,0,1.0,0,1.0
1303,'2',0.0,0.0,0.3,-0.21,1.04,0,0.78,0.0,1.0,0.0,0.0,1.0,0,100.0,0.65,0.12,1,1.0,0,1.0,0,1.0,0,1.0,0,1.0
1304,'1',0.594,-0.01,0.28,-0.2,1.04,0,0.72,0.0,1.0,0.0,0.0,1.0,1,100.0,0.6,0.1,1,1.0,0,1.0,0,1.0,0,1.0,0,1.0
1304,'2',0.267,-0.01,0.13,-0.09,1.04,0,0.33,0.0,1.0,0.0,0.0,1.0,1,100.0,0.27,0.01,1,1.0,0,1.0,0,1.0,0,1.0,0,1.0
1305,'1',0.267,-0.0,0.13,-0.09,1.04,0,0.33,0.0,1.0,0.0,0.0,1.0,1,100.0,0.27,0.01,1,1.0,0,1.0,0,1.0,0,1.0,0,1.0
1305,'2',0.267,-0.0,0.13,-0.09,1.04,0,0.33,0.0,1.0,0.0,0.0,1.0,1,100.0,0.27,0.01,1,1.0,0,1.0,0,1.0,0,1.0,0,1.0
1306,'1',0.04,-0.001,0.03,-0.02,1.04,0,0.33,0.0,1.0,0.0,0.0,1.0,1,100.0,0.04,0.01,1,1.0,0,1.0,0,1.0,0,1.0,0,1.0
1310,'1',0.772,0.4,0.4,-0.28,1.04,0,0.94,0.0,1.0,0.0,0.0,1.0,1,100.0,0.78,0.11,1,1.0,0,1.0,0,1.0,0,1.0,0,1.0
1310,'2',0.0,0.0,0.4,-0.28,1.04,0,0.94,0.0,1.0,0.0,0.0,1.0,0,100.0,0.78,0.1,1,1.0,0,1.0,0,1.0,0,1.0,0,1.0
1311,'1',0.772,0.4,0.4,-0.28,1.04,0,0.94,0.0,1.0,0.0,0.0,1.0,1,100.0,0.78,0.39,1,1.0,0,1.0,0,1.0,0,1.0,0,1.0
1311,'2',0.0,0.0,0.4,-0.28,1.04,0,0.94,0.0,1.0,0.0,0.0,1.0,0,100.0,0.78,0.12,1,1.0,0,1.0,0,1.0,0,1.0,0,1.0
1312,'1',0.0,0.0,0.4,-0.28,1.04,0,0.94,0.0,1.0,0.0,0.0,1.0,0,100.0,0.78,0.16,1,1.0,0,1.0,0,1.0,0,1.0,0,1.0
1312,'2',0.0,0.0,0.4,-0.28,1.04,0,0.94,0.0,1.0,0.0,0.0,1.0,0,100.0,0.78,0.21,1,1.0,0,1.0,0,1.0,0,1.0,0,1.0
1315,'1',59.899,14.91,30.79,-21.55,1.04,0,72.6,0.0,1.0,0.0,0.0,1.0,1,100.0,60.5,25.17,1,1.0,0,1.0,0,1.0,0,1.0,0,1.0
1319,'1',0.0,0.0,41.92,-29.34,1.04,0,98.84,0.0,1.0,0.0,0.0,1.0,0,100.0,82.37,10.07,1,1.0,0,1.0,0,1.0,0,1.0,0,1.0
1320,'1',0.0,0.0,41.92,-29.34,1.04,0,98.84,0.0,1.0,0.0,0.0,1.0,0,100.0,82.37,11.18,1,1.0,0,1.0,0,1.0,0,1.0,0,1.0
1321,'1',81.552,-29.34,41.92,-29.34,1.04,0,98.84,0.0,1.0,0.0,0.0,1.0,1,100.0,82.37,14.53,1,1.0,0,1.0,0,1.0,0,1.0,0,1.0
1324,'1',3.465,1.63,1.63,-1.14,1.04,0,4.2,0.0,1.0,0.0,0.0,1.0,1,100.0,3.5,1.01,1,1.0,0,1.0,0,1.0,0,1.0,0,1.0
1326,'1',3.515,1.054,1.054,-1.054,1.04,0,48.6,0.0,1.0,0.0,0.0,1.0,1,100.0,3.515,0.0,1,1.0,0,1.0,0,1.0,0,1.0,1,1.0
1329,'1',0.385,0.115,0.115,-0.115,1.04,0,2.28,0.0,1.0,0.0,0.0,1.0,1,100.0,0.385,0.0,1,1.0,0,1.0,0,1.0,0,1.0,1,1.0
1332,'1',0.792,0.237,0.37,-0.26,1.04,0,0.96,0.0,1.0,0.0,0.0,1.0,1,100.0,0.8,0.1,1,1.0,0,1.0,0,1.0,0,1.0,0,1.0
1332,'2',0.792,0.237,0.37,-0.26,1.04,0,0.96,0.0,1.0,0.0,0.0,1.0,1,100.0,0.8,0.39,1,1.0,0,1.0,0,1.0,0,1.0,0,1.0
1333,'1',0.792,0.07,0.37,-0.26,1.04,0,0.96,0.0,1.0,0.0,0.0,1.0,1,100.0,0.8,0.3,1,1.0,0,1.0,0,1.0,0,1.0,0,1.0
1338,'1',32.109,0.436,20.19,-14.13,1.04,0,52.0,0.0,1.0,0.0,0.0,1.0,1,100.0,43.33,17.06,1,1.0,0,1.0,0,1.0,0,1.0,0,1.0
1339,'1',28.679,-6.703,20.19,-14.13,1.04,0,52.0,0.0,1.0,0.0,0.0,1.0,1,100.0,43.33,13.63,1,1.0,0,1.0,0,1.0,0,1.0,0,1.0
1339,'2',25.369,-6.703,20.19,-14.13,1.04,0,52.0,0.0,1.0,0.0,0.0,1.0,1,100.0,43.33,10.32,1,1.0,0,1.0,0,1.0,0,1.0,0,1.0
1341,'1',1.832,-0.66,0.94,-0.66,1.04,0,2.22,0.0,1.0,0.0,0.0,1.0,1,100.0,1.85,0.6,1,1.0,0,1.0,0,1.0,0,1.0,0,1.0
1342,'1',0.891,-0.051,0.46,-0.32,1.04,0,1.08,0.0,1.0,0.0,0.0,1.0,1,100.0,0.9,0.37,1,1.0,0,1.0,0,1.0,0,1.0,0,1.0
1342,'2',1.832,-0.051,0.94,-0.66,1.04,0,2.22,0.0,1.0,0.0,0.0,1.0,1,100.0,1.85,0.45,1,1.0,0,1.0,0,1.0,0,1.0,0,1.0
1342,'3',1.832,-0.051,0.94,-0.66,1.04,0,2.22,0.0,1.0,0.0,0.0,1.0,1,100.0,1.85,0.55,1,1.0,0,1.0,0,1.0,0,1.0,0,1.0
1342,'4',1.832,-0.051,0.94,-0.66,1.04,0,2.22,0.0,1.0,0.0,0.0,1.0,1,100.0,1.85,0.64,1,1.0,0,1.0,0,1.0,0,1.0,0,1.0
1345,'1',5.94,3.05,3.05,-2.14,1.04,0,7.2,0.0,1.0,0.0,0.0,1.0,1,100.0,6.0,2.01,1,1.0,0,1.0,0,1.0,0,1.0,0,1.0
1347,'1',56.137,-18.49,26.42,-18.49,1.04,0,68.04,0.0,1.0,0.0,0.0,1.0,1,100.0,56.7,28.0,1,1.0,0,1.0,0,1.0,0,1.0,0,1.0
1350,'1',39.603,6.375,20.36,-14.25,1.04,0,48.0,0.0,1.0,0.0,0.0,1.0,1,100.0,40.0,5.01,1,1.0,0,1.0,0,1.0,0,1.0,0,1.0
1352,'1',64.354,30.29,30.29,-21.2,1.04,0,78.0,0.0,1.0,0.0,0.0,1.0,1,100.0,65.0,16.8,1,1.0,0,1.0,0,1.0,0,1.0,0,1.0
1352,'2',64.354,30.29,30.29,-21.2,1.04,0,78.0,0.0,1.0,0.0,0.0,1.0,1,100.0,65.0,8.77,1,1.0,0,1.0,0,1.0,0,1.0,0,1.0
1354,'1',39.511,28.203,33.27,-23.29,1.04,0,85.68,0.0,1.0,0.0,0.0,1.0,1,100.0,71.4,14.72,1,1.0,0,1.0,0,1.0,0,1.0,0,1.0
1357,'1',0.0,0.0,28.86,-20.2,1.04,0,68.04,0.0,1.0,0.0,0.0,1.0,0,100.0,56.7,27.69,1,1.0,0,1.0,0,1.0,0,1.0,0,1.0
1361,'1',49.236,10.13,25.31,-17.72,1.04,0,59.68,0.0,1.0,0.0,0.0,1.0,1,100.0,49.73,6.58,1,1.0,0,1.0,0,1.0,0,1.0,0,1.0
1362,'1',49.236,19.44,25.31,-17.72,1.04,0,59.68,0.0,1.0,0.0,0.0,1.0,1,100.0,49.73,7.85,1,1.0,0,1.0,0,1.0,0,1.0,0,1.0
1362,'2',0.0,0.0,25.31,-17.72,1.04,0,59.68,0.0,1.0,0.0,0.0,1.0,0,100.0,49.73,23.11,1,1.0,0,1.0,0,1.0,0,1.0,0,1.0
1365,'1',1.584,0.81,0.81,-0.57,1.04,0,1.92,0.0,1.0,0.0,0.0,1.0,1,100.0,1.6,0.48,1,1.0,0,1.0,0,1.0,0,1.0,0,1.0
1365,'2',0.0,0.0,0.81,-0.57,1.04,0,1.92,0.0,1.0,0.0,0.0,1.0,0,100.0,1.6,0.21,1,1.0,0,1.0,0,1.0,0,1.0,0,1.0
1365,'3',1.584,0.81,0.81,-0.57,1.04,0,1.92,0.0,1.0,0.0,0.0,1.0,1,100.0,1.6,0.69,1,1.0,0,1.0,0,1.0,0,1.0,0,1.0
1365,'4',0.0,0.0,0.81,-0.57,1.04,0,1.92,0.0,1.0,0.0,0.0,1.0,0,100.0,1.6,0.56,1,1.0,0,1.0,0,1.0,0,1.0,0,1.0
1365,'5',0.0,0.0,0.81,-0.57,1.04,0,1.92,0.0,1.0,0.0,0.0,1.0,0,100.0,1.6,0.7,1,1.0,0,1.0,0,1.0,0,1.0,0,1.0
1365,'6',1.584,0.81,0.81,-0.57,1.04,0,1.92,0.0,1.0,0.0,0.0,1.0,1,100.0,1.6,0.38,1,1.0,0,1.0,0,1.0,0,1.0,0,1.0
1368,'1',1.98,1.02,1.02,-0.71,1.04,0,2.4,0.0,1.0,0.0,0.0,1.0,1,100.0,2.0,0.31,1,1.0,0,1.0,0,1.0,0,1.0,0,1.0
1368,'2',0.0,0.0,1.02,-0.71,1.04,0,2.4,0.0,1.0,0.0,0.0,1.0,0,100.0,2.0,0.95,1,1.0,0,1.0,0,1.0,0,1.0,0,1.0
1370,'1',0.0,0.0,2.33,-1.63,1.04,0,6.0,0.0,1.0,0.0,0.0,1.0,0,100.0,5.0,1.05,1,1.0,0,1.0,0,1.0,0,1.0,0,1.0
1372,'1',0.0,0.0,1.69,-1.18,1.04,0,4.36,0.0,1.0,0.0,0.0,1.0,0,100.0,3.63,1.36,1,1.0,0,1.0,0,1.0,0,1.0,0,1.0
1372,'2',3.594,0.469,1.69,-1.18,1.04,0,4.36,0.0,1.0,0.0,0.0,1.0,1,100.0,3.63,1.21,1,1.0,0,1.0,0,1.0,0,1.0,0,1.0
1373,'1',0.099,0.05,0.05,-0.03,1.04,0,0.12,0.0,1.0,0.0,0.0,1.0,1,100.0,0.1,0.01,1,1.0,0,1.0,0,1.0,0,1.0,0,1.0
1373,'2',3.594,1.69,1.69,-1.18,1.04,0,4.36,0.0,1.0,0.0,0.0,1.0,1,100.0,3.63,1.03,1,1.0,0,1.0,0,1.0,0,1.0,0,1.0
1373,'3',3.594,1.69,1.69,-1.18,1.04,0,4.36,0.0,1.0,0.0,0.0,1.0,1,100.0,3.63,1.08,1,1.0,0,1.0,0,1.0,0,1.0,0,1.0
1373,'4',3.594,1.69,1.69,-1.18,1.04,0,4.36,0.0,1.0,0.0,0.0,1.0,1,100.0,3.63,0.76,1,1.0,0,1.0,0,1.0,0,1.0,0,1.0
1373,'5',3.594,1.69,1.69,-1.18,1.04,0,4.36,0.0,1.0,0.0,0.0,1.0,1,100.0,3.63,1.39,1,1.0,0,1.0,0,1.0,0,1.0,0,1.0
1377,'1',497.012,208.44,342.86,-240.0,1.04,1375,602.4,0.0,1.0,0.0,0.0,1.0,1,100.0,502.0,61.46,1,1.0,0,1.0,0,1.0,0,1.0,0,1.0
1380,'1',9.605,-2.882,2.882,-2.882,1.04,0,97.2,0.0,1.0,0.0,0.0,1.0,1,100.0,9.605,0.0,1,1.0,0,1.0,0,1.0,0,1.0,1,1.0
1382,'1',3.386,-0.591,1.74,-1.22,1.04,0,4.1,0.0,1.0,0.0,0.0,1.0,1,100.0,3.42,0.85,1,1.0,0,1.0,0,1.0,0,1.0,0,1.0
1382,'2',3.386,-0.591,1.74,-1.22,1.04,0,4.1,0.0,1.0,0.0,0.0,1.0,1,100.0,3.42,0.98,1,1.0,0,1.0,0,1.0,0,1.0,0,1.0
1382,'3',3.386,-0.591,1.74,-1.22,1.04,0,4.1,0.0,1.0,0.0,0.0,1.0,1,100.0,3.42,1.19,1,1.0,0,1.0,0,1.0,0,1.0,0,1.0
1382,'4',3.386,-0.591,1.74,-1.22,1.04,0,4.1,0.0,1.0,0.0,0.0,1.0,1,100.0,3.42,1.34,1,1.0,0,1.0,0,1.0,0,1.0,0,1.0
1382,'5',0.0,0.0,1.74,-1.22,1.04,0,4.1,0.0,1.0,0.0,0.0,1.0,0,100.0,3.42,1.07,1,1.0,0,1.0,0,1.0,0,1.0,0,1.0
1382,'6',0.0,0.0,1.74,-1.22,1.04,0,4.1,0.0,1.0,0.0,0.0,1.0,0,100.0,3.42,1.64,1,1.0,0,1.0,0,1.0,0,1.0,0,1.0
1385,'1',8.094,2.428,2.428,-2.428,1.04,0,15.72,0.0,1.0,0.0,0.0,1.0,1,100.0,8.094,0.0,1,1.0,0,1.0,0,1.0,0,1.0,0,1.0
1386,'1',11.062,3.319,3.319,-3.319,1.04,0,15.72,0.0,1.0,0.0,0.0,1.0,1,100.0,11.062,0.0,1,1.0,0,1.0,0,1.0,0,1.0,0,1.0
1390,'1',0.0,0.0,87.8,-61.46,1.04,1388,207.0,0.0,1.0,0.0,0.0,1.0,0,100.0,172.5,49.53,1,1.0,0,1.0,0,1.0,0,1.0,0,1.0
1392,'1',170.786,67.455,87.8,-61.46,1.04,1388,100.0,0.0,1.0,0.0,0.0,1.0,1,100.0,172.5,77.69,1,1.0,0,1.0,0,1.0,0,1.0,0,1.0
1396,'1',2.437,0.731,0.731,-0.731,1.04,0,3.36,0.0,1.0,0.0,0.0,1.0,1,100.0,2.437,0.0,1,1.0,0,1.0,0,1.0,0,1.0,0,1.0
1397,'1',1.4,0.42,0.42,-0.42,1.04,0,3.36,0.0,1.0,0.0,0.0,1.0,1,100.0,1.4,0.0,1,1.0,0,1.0,0,1.0,0,1.0,0,1.0
1397,'2',1.545,0.463,0.463,-0.463,1.04,0,3.36,0.0,1.0,0.0,0.0,1.0,1,100.0,1.545,0.0,1,1.0,0,1.0,0,1.0,0,1.0,0,1.0
1398,'1',0.072,0.022,0.022,-0.022,1.04,0,0.12,0.0,1.0,0.0,0.0,1.0,1,100.0,0.072,0.0,1,1.0,0,1.0,0,1.0,0,1.0,0,1.0
1398,'2',0.055,0.017,0.017,-0.017,1.04,0,0.12,0.0,1.0,0.0,0.0,1.0,1,100.0,0.055,0.0,1,1.0,0,1.0,0,1.0,0,1.0,0,1.0
1400,'1',21.781,-3.216,11.2,-7.84,1.04,0,26.4,0.0,1.0,0.0,0.0,1.0,1,100.0,22.0,2.69,1,1.0,0,1.0,0,1.0,0,1.0,0,1.0
1402,'1',1.208,0.62,0.62,-0.43,1.04,0,1.47,0.0,1.0,0.0,0.0,1.0,1,100.0,1.22,0.36,1,1.0,0,1.0,0,1.0,0,1.0,0,1.0
1402,'2',0.0,0.0,0.62,-0.43,1.04,0,1.47,0.0,1.0,0.0,0.0,1.0,0,100.0,1.22,0.15,1,1.0,0,1.0,0,1.0,0,1.0,0,1.0
1402,'3',1.208,0.62,0.62,-0.43,1.04,0,1.47,0.0,1.0,0.0,0.0,1.0,1,100.0,1.22,0.35,1,1.0,0,1.0,0,1.0,0,1.0,0,1.0
1402,'4',1.208,0.62,0.62,-0.43,1.04,0,1.47,0.0,1.0,0.0,0.0,1.0,1,100.0,1.22,0.16,1,1.0,0,1.0,0,1.0,0,1.0,0,1.0
1405,'1',0.0,0.0,0.68,-0.48,1.04,0,1.74,0.0,1.0,0.0,0.0,1.0,0,100.0,1.45,0.18,1,1.0,0,1.0,0,1.0,0,1.0,0,1.0
1405,'2',1.436,0.68,0.68,-0.48,1.04,0,1.74,0.0,1.0,0.0,0.0,1.0,1,100.0,1.45,0.72,1,1.0,0,1.0,0,1.0,0,1.0,0,1.0
1406,'1',1.436,0.68,0.68,-0.48,1.04,0,1.74,0.0,1.0,0.0,0.0,1.0,1,100.0,1.45,0.19,1,1.0,0,1.0,0,1.0,0,1.0,0,1.0
1406,'2',0.0,0.0,0.68,-0.48,1.04,0,1.74,0.0,1.0,0.0,0.0,1.0,0,100.0,1.45,0.63,1,1.0,0,1.0,0,1.0,0,1.0,0,1.0
1409,'1',1.861,0.95,0.95,-0.66,1.04,0,2.25,0.0,1.0,0.0,0.0,1.0,1,100.0,1.88,0.93,1,1.0,0,1.0,0,1.0,0,1.0,0,1.0
1410,'1',1.861,0.95,0.95,-0.66,1.04,0,2.25,0.0,1.0,0.0,0.0,1.0,1,100.0,1.88,0.58,1,1.0,0,1.0,0,1.0,0,1.0,0,1.0
1410,'2',0.0,0.0,0.95,-0.66,1.04,0,2.25,0.0,1.0,0.0,0.0,1.0,0,100.0,1.88,0.77,1,1.0,0,1.0,0,1.0,0,1.0,0,1.0
1411,'1',1.861,0.95,0.95,-0.66,1.04,0,2.25,0.0,1.0,0.0,0.0,1.0,1,100.0,1.88,0.66,1,1.0,0,1.0,0,1.0,0,1.0,0,1.0
1413,'1',72.219,3.562,60.09,-42.06,1.04,0,154.728,0.0,1.0,0.0,0.0,1.0,1,100.0,128.94,27.44,1,1.0,0,1.0,0,1.0,0,1.0,0,1.0
1414,'1',102.009,3.771,60.09,-42.06,1.04,0,154.728,0.0,1.0,0.0,0.0,1.0,1,100.0,128.94,57.23,1,1.0,0,1.0,0,1.0,0,1.0,0,1.0
1415,'1',0.0,0.0,60.09,-42.06,1.04,0,154.728,0.0,1.0,0.0,0.0,1.0,0,100.0,128.94,49.17,1,1.0,0,1.0,0,1.0,0,1.0,0,1.0
1416,'1',101.929,-36.745,60.09,-42.06,1.037,1412,154.728,0.0,1.0,0.0,0.0,1.0,1,100.0,128.94,57.15,1,1.0,0,1.0,0,1.0,0,1.0,0,1.0
1417,'1',77.229,3.804,60.09,-42.06,1.04,0,154.728,0.0,1.0,0.0,0.0,1.0,1,100.0,128.94,32.45,1,1.0,0,1.0,0,1.0,0,1.0,0,1.0
1419,'1',0.327,-0.1,0.15,-0.1,1.04,0,0.39,0.0,1.0,0.0,0.0,1.0,1,100.0,0.33,0.01,1,1.0,0,1.0,0,1.0,0,1.0,0,1.0
1419,'2',0.327,-0.1,0.15,-0.1,1.04,0,0.39,0.0,1.0,0.0,0.0,1.0,1,100.0,0.33,0.01,1,1.0,0,1.0,0,1.0,0,1.0,0,1.0
1419,'3',0.327,-0.1,0.15,-0.1,1.04,0,0.39,0.0,1.0,0.0,0.0,1.0,1,100.0,0.33,0.01,1,1.0,0,1.0,0,1.0,0,1.0,0,1.0
1419,'4',0.327,-0.1,0.15,-0.1,1.04,0,0.39,0.0,1.0,0.0,0.0,1.0,1,100.0,0.33,0.01,1,1.0,0,1.0,0,1.0,0,1.0,0,1.0
1419,'5',0.0,0.0,0.3,-0.21,1.04,0,0.78,0.0,1.0,0.0,0.0,1.0,0,100.0,0.65,0.17,1,1.0,0,1.0,0,1.0,0,1.0,0,1.0
1419,'6',0.0,0.0,0.3,-0.21,1.04,0,0.78,0.0,1.0,0.0,0.0,1.0,0,100.0,0.65,0.13,1,1.0,0,1.0,0,1.0,0,1.0,0,1.0
1422,'1',0.0,0.0,24.23,-16.96,1.04,0,57.12,0.0,1.0,0.0,0.0,1.0,0,100.0,47.6,16.55,1,1.0,0,1.0,0,1.0,0,1.0,0,1.0
1422,'2',47.127,-6.887,24.23,-16.96,1.04,0,57.12,0.0,1.0,0.0,0.0,1.0,1,100.0,47.6,17.53,1,1.0,0,1.0,0,1.0,0,1.0,0,1.0
1422,'3',47.127,-6.887,24.23,-16.96,1.04,0,57.12,0.0,1.0,0.0,0.0,1.0,1,100.0,47.6,17.63,1,1.0,0,1.0,0,1.0,0,1.0,0,1.0
1425,'1',1.188,0.56,0.56,-0.39,1.04,0,1.44,0.0,1.0,0.0,0.0,1.0,1,100.0,1.2,0.49,1,1.0,0,1.0,0,1.0,0,1.0,0,1.0
1425,'2',1.188,0.56,0.56,-0.39,1.04,0,1.44,0.0,1.0,0.0,0.0,1.0,1,100.0,1.2,0.48,1,1.0,0,1.0,0,1.0,0,1.0,0,1.0
1425,'3',1.188,0.56,0.56,-0.39,1.04,0,1.44,0.0,1.0,0.0,0.0,1.0,1,100.0,1.2,0.42,1,1.0,0,1.0,0,1.0,0,1.0,0,1.0
1428,'1',19.306,0.971,9.93,-6.95,1.04,0,23.4,0.0,1.0,0.0,0.0,1.0,1,100.0,19.5,2.17,1,1.0,0,1.0,0,1.0,0,1.0,0,1.0
1428,'2',19.306,0.971,9.93,-6.95,1.04,0,23.4,0.0,1.0,0.0,0.0,1.0,1,100.0,19.5,4.7,1,1.0,0,1.0,0,1.0,0,1.0,0,1.0
1431,'1',0.0,0.0,1.12,-0.78,1.04,0,2.88,0.0,1.0,0.0,0.0,1.0,0,100.0,2.4,0.88,1,1.0,0,1.0,0,1.0,0,1.0,0,1.0
1431,'2',2.376,0.842,1.12,-0.78,1.04,0,2.88,0.0,1.0,0.0,0.0,1.0,1,100.0,2.4,0.71,1,1.0,0,1.0,0,1.0,0,1.0,0,1.0
1432,'1',2.376,0.962,1.12,-0.78,1.04,0,2.88,0.0,1.0,0.0,0.0,1.0,1,100.0,2.4,0.62,1,1.0,0,1.0,0,1.0,0,1.0,0,1.0
1432,'2',0.0,0.0,1.12,-0.78,1.04,0,2.88,0.0,1.0,0.0,0.0,1.0,0,100.0,2.4,0.68,1,1.0,0,1.0,0,1.0,0,1.0,0,1.0
1433,'1',0.0,0.0,1.12,-0.78,1.04,0,2.88,0.0,1.0,0.0,0.0,1.0,0,100.0,2.4,0.28,1,1.0,0,1.0,0,1.0,0,1.0,0,1.0
1433,'2',0.624,0.3,0.3,-0.21,1.04,0,0.76,0.0,1.0,0.0,0.0,1.0,1,100.0,0.63,0.08,1,1.0,0,1.0,0,1.0,0,1.0,0,1.0
1434,'1',0.624,0.138,0.3,-0.21,1.04,0,0.76,0.0,1.0,0.0,0.0,1.0,1,100.0,0.63,0.19,1,1.0,0,1.0,0,1.0,0,1.0,0,1.0
1434,'2',0.624,0.138,0.3,-0.21,1.04,0,0.76,0.0,1.0,0.0,0.0,1.0,1,100.0,0.63,0.31,1,1.0,0,1.0,0,1.0,0,1.0,0,1.0
1439,'1',6.538,1.961,1.961,-1.961,1.04,0,12.96,0.0,1.0,0.0,0.0,1.0,1,100.0,6.538,0.0,1,1.0,0,1.0,0,1.0,0,1.0,0,1.0
1440,'1',5.4,1.62,1.62,-1.62,1.04,0,12.96,0.0,1.0,0.0,0.0,1.0,1,100.0,5.4,0.0,1,1.0,0,1.0,0,1.0,0,1.0,0,1.0
1442,'1',4.855,-1.456,1.456,-1.456,1.04,0,87.72,0.0,1.0,0.0,0.0,1.0,1,100.0,4.855,0.0,1,1.0,0,1.0,0,1.0,0,1.0,1,1.0
1446,'1',4.455,0.341,2.29,-1.6,1.04,0,5.4,0.0,1.0,0.0,0.0,1.0,1,100.0,4.5,1.16,1,1.0,0,1.0,0,1.0,0,1.0,0,1.0
1446,'2',4.455,0.341,2.29,-1.6,1.04,0,5.4,0.0,1.0,0.0,0.0,1.0,1,100.0,4.5,0.52,1,1.0,0,1.0,0,1.0,0,1.0,0,1.0
1448,'1',49.505,4.509,14.852,-14.852,1.04,0,60.0,0.0,1.0,0.0,0.0,1.0,1,100.0,49.505,0.0,1,1.0,0,1.0,0,1.0,0,1.0,0,1.0
1453,'1',1.436,0.68,0.68,-0.48,1.04,0,1.74,0.0,1.0,0.0,0.0,1.0,1,100.0,1.45,0.32,1,1.0,0,1.0,0,1.0,0,1.0,0,1.0
1453,'2',0.0,0.0,0.68,-0.48,1.04,0,1.74,0.0,1.0,0.0,0.0,1.0,0,100.0,1.45,0.18,1,1.0,0,1.0,0,1.0,0,1.0,0,1.0
1454,'1',1.436,0.68,0.68,-0.48,1.04,0,1.74,0.0,1.0,0.0,0.0,1.0,1,100.0,1.45,0.44,1,1.0,0,1.0,0,1.0,0,1.0,0,1.0
1454,'2',0.0,0.0,0.68,-0.48,1.04,0,1.74,0.0,1.0,0.0,0.0,1.0,0,100.0,1.45,0.38,1,1.0,0,1.0,0,1.0,0,1.0,0,1.0
1456,'1',11.91,3.573,3.573,-3.573,1.04,0,71.28,0.0,1.0,0.0,0.0,1.0,1,100.0,11.91,0.0,1,1.0,0,1.0,0,1.0,0,1.0,1,1.0
1460,'1',0.792,0.37,0.37,-0.26,1.04,0,0.96,0.0,1.0,0.0,0.0,1.0,1,100.0,0.8,0.18,1,1.0,0,1.0,0,1.0,0,1.0,0,1.0
1460,'2',0.644,0.3,0.3,-0.21,1.04,0,0.78,0.0,1.0,0.0,0.0,1.0,1,100.0,0.65,0.25,1,1.0,0,1.0,0,1.0,0,1.0,0,1.0
1461,'1',0.0,0.0,0.3,-0.21,1.04,0,0.78,0.0,1.0,0.0,0.0,1.0,0,100.0,0.65,0.25,1,1.0,0,1.0,0,1.0,0,1.0,0,1.0
1464,'1',9.023,0.405,2.707,-2.707,1.04,0,12.96,0.0,1.0,0.0,0.0,1.0,1,100.0,9.023,0.0,1,1.0,0,1.0,0,1.0,0,1.0,0,1.0
1464,'2',5.4,0.405,1.62,-1.62,1.04,0,12.96,0.0,1.0,0.0,0.0,1.0,1,100.0,5.4,0.0,1,1.0,0,1.0,0,1.0,0,1.0,0,1.0
1467,'1',4.285,1.285,1.285,-1.285,1.04,0,48.0,0.0,1.0,0.0,0.0,1.0,1,100.0,4.285,0.0,1,1.0,0,1.0,0,1.0,0,1.0,1,1.0
1469,'1',2.871,1.35,1.35,-0.94,1.04,0,3.48,0.0,1.0,0.0,0.0,1.0,1,100.0,2.9,0.33,1,1.0,0,1.0,0,1.0,0,1.0,0,1.0
1473,'1',89.219,0.126,51.17,-35.82,1.04,0,131.76,0.0,1.0,0.0,0.0,1.0,1,100.0,109.8,51.09,1,1.0,0,1.0,0,1.0,0,1.0,0,1.0
1477,'1',30.95,9.285,9.285,-9.285,1.042,1475,247.8,0.0,1.0,0.0,0.0,1.0,1,100.0,30.95,0.0,1,1.0,0,1.0,0,1.0,0,1.0,1,1.0
1482,'1',4.45,1.335,1.335,-1.335,1.04,0,95.88,0.0,1.0,0.0,0.0,1.0,1,100.0,4.45,0.0,1,1.0,0,1.0,0,1.0,0,1.0,1,1.0
1484,'1',0.495,0.23,0.23,-0.16,1.04,0,0.6,0.0,1.0,0.0,0.0,1.0,1,100.0,0.5,0.01,1,1.0,0,1.0,0,1.0,0,1.0,0,1.0
1484,'2',1.782,0.84,0.84,-0.59,1.04,0,2.16,0.0,1.0,0.0,0.0,1.0,1,100.0,1.8,0.45,1,1.0,0,1.0,0,1.0,0,1.0,0,1.0
1487,'1',1.119,-0.41,0.58,-0.41,1.04,0,1.36,0.0,1.0,0.0,0.0,1.0,1,100.0,1.13,0.41,1,1.0,0,1.0,0,1.0,0,1.0,0,1.0
1487,'2',1.119,-0.41,0.58,-0.41,1.04,0,1.36,0.0,1.0,0.0,0.0,1.0,1,100.0,1.13,0.32,1,1.0,0,1.0,0,1.0,0,1.0,0,1.0
1488,'1',0.0,0.0,0.58,-0.41,1.04,0,1.36,0.0,1.0,0.0,0.0,1.0,0,100.0,1.13,0.47,1,1.0,0,1.0,0,1.0,0,1.0,0,1.0
1491,'1',1.386,-0.29,0.65,-0.46,1.04,0,1.68,0.0,1.0,0.0,0.0,1.0,1,100.0,1.4,0.19,1,1.0,0,1.0,0,1.0,0,1.0,0,1.0
1491,'2',0.0,0.0,0.65,-0.46,1.04,0,1.68,0.0,1.0,0.0,0.0,1.0,0,100.0,1.4,0.42,1,1.0,0,1.0,0,1.0,0,1.0,0,1.0
1492,'1',1.386,-0.233,0.65,-0.46,1.04,0,1.68,0.0,1.0,0.0,0.0,1.0,1,100.0,1.4,0.18,1,1.0,0,1.0,0,1.0,0,1.0,0,1.0
1492,'2',0.0,0.0,0.65,-0.46,1.04,0,1.68,0.0,1.0,0.0,0.0,1.0,0,100.0,1.4,0.21,1,1.0,0,1.0,0,1.0,0,1.0,0,1.0
1493,'1',1.386,-0.131,0.65,-0.46,1.04,0,1.68,0.0,1.0,0.0,0.0,1.0,1,100.0,1.4,0.69,1,1.0,0,1.0,0,1.0,0,1.0,0,1.0
1493,'2',0.743,-0.131,0.35,-0.25,1.04,0,0.9,0.0,1.0,0.0,0.0,1.0,1,100.0,0.75,0.27,1,1.0,0,1.0,0,1.0,0,1.0,0,1.0
1494,'1',0.0,0.0,0.35,-0.25,1.04,0,0.9,0.0,1.0,0.0,0.0,1.0,0,100.0,0.75,0.31,1,1.0,0,1.0,0,1.0,0,1.0,0,1.0
1497,'1',0.574,0.03,0.27,-0.19,1.04,0,0.69,0.0,1.0,0.0,0.0,1.0,1,100.0,0.58,0.1,1,1.0,0,1.0,0,1.0,0,1.0,0,1.0
1498,'1',0.574,0.27,0.27,-0.19,1.04,0,0.69,0.0,1.0,0.0,0.0,1.0,1,100.0,0.58,0.18,1,1.0,0,1.0,0,1.0,0,1.0,0,1.0
1498,'2',0.574,0.27,0.27,-0.19,1.04,0,0.69,0.0,1.0,0.0,0.0,1.0,1,100.0,0.58,0.2,1,1.0,0,1.0,0,1.0,0,1.0,0,1.0
1499,'1',0.574,0.05,0.27,-0.19,1.04,0,0.69,0.0,1.0,0.0,0.0,1.0,1,100.0,0.58,0.21,1,1.0,0,1.0,0,1.0,0,1.0,0,1.0
1503,'1',0.842,-0.3,0.43,-0.3,1.04,0,1.02,0.0,1.0,0.0,0.0,1.0,1,100.0,0.85,0.2,1,1.0,0,1.0,0,1.0,0,1.0,0,1.0
1503,'2',0.842,-0.3,0.43,-0.3,1.04,0,1.02,0.0,1.0,0.0,0.0,1.0,1,100.0,0.85,0.12,1,1.0,0,1.0,0,1.0,0,1.0,0,1.0
1504,'1',0.842,-0.053,0.43,-0.3,1.04,0,1.02,0.0,1.0,0.0,0.0,1.0,1,100.0,0.85,0.38,1,1.0,0,1.0,0,1.0,0,1.0,0,1.0
1505,'1',0.842,-0.03,0.43,-0.3,1.04,0,1.02,0.0,1.0,0.0,0.0,1.0,1,100.0,0.85,0.21,1,1.0,0,1.0,0,1.0,0,1.0,0,1.0
1506,'1',0.594,-0.22,0.31,-0.22,1.04,0,0.72,0.0,1.0,0.0,0.0,1.0,1,100.0,0.6,0.17,1,1.0,0,1.0,0,1.0,0,1.0,0,1.0
1506,'2',0.594,-0.22,0.31,-0.22,1.04,0,0.72,0.0,1.0,0.0,0.0,1.0,1,100.0,0.6,0.16,1,1.0,0,1.0,0,1.0,0,1.0,0,1.0
1508,'1',0.0,0.0,0.5,-0.35,1.04,0,1.17,0.0,1.0,0.0,0.0,1.0,0,100.0,0.98,0.31,1,1.0,0,1.0,0,1.0,0,1.0,0,1.0
1509,'1',0.0,0.0,0.5,-0.35,1.04,0,1.17,0.0,1.0,0.0,0.0,1.0,0,100.0,0.98,0.4,1,1.0,0,1.0,0,1.0,0,1.0,0,1.0
1509,'2',0.0,0.0,0.5,-0.35,1.04,0,1.17,0.0,1.0,0.0,0.0,1.0,0,100.0,0.98,0.29,1,1.0,0,1.0,0,1.0,0,1.0,0,1.0
1509,'3',0.97,0.069,0.5,-0.35,1.04,0,1.17,0.0,1.0,0.0,0.0,1.0,1,100.0,0.98,0.46,1,1.0,0,1.0,0,1.0,0,1.0,0,1.0
1513,'1',1.238,0.58,0.58,-0.41,1.04,0,1.5,0.0,1.0,0.0,0.0,1.0,1,100.0,1.25,0.37,1,1.0,0,1.0,0,1.0,0,1.0,0,1.0
...
0 / END OF GENERATOR DATA BEGIN BRANCH DATA
1,3,'1',0.01313,0.0422,0.00106056,63.6,63.6,63.6,0.0,0.0,0.0,0.0,1,1,4.65,1,1.0,0,1.0,0,1.0,0,1.0
2,4,'1',0.0002,0.00106,0.0,322.0,322.0,322.0,0.0,0.0,0.0,0.0,1,1,0.0,1,1.0,0,1.0,0,1.0,0,1.0
2,1565,'1',0.00841,0.04589,0.0221834,223.7,223.7,223.7,0.0,0.0,0.0,0.0,1,1,17.87,1,1.0,0,1.0,0,1.0,0,1.0
3,995,'1',0.10316,0.23914,0.00412069,59.3,59.3,59.3,0.0,0.0,0.0,0.0,1,1,17.47,1,1.0,0,1.0,0,1.0,0,1.0
3,997,'1',0.08873,0.22305,0.0017828,58.4,58.4,58.4,0.0,0.0,0.0,0.0,1,1,12.6,1,1.0,0,1.0,0,1.0,0,1.0
5,15,'1',0.03587,0.08957,0.00326876,55.8,55.8,55.8,0.0,0.0,0.0,0.0,1,1,10.45,1,1.0,0,1.0,0,1.0,0,1.0
5,1223,'1',0.03741,0.08374,0.00721067,51.6,51.6,51.6,0.0,0.0,0.0,0.0,1,1,13.29,1,1.0,0,1.0,0,1.0,0,1.0
6,11,'1',0.03144,0.0816,0.00438315,73.6,73.6,73.6,0.0,0.0,0.0,0.0,1,1,13.15,1,1.0,0,1.0,0,1.0,0,1.0
6,24,'1',0.08468,0.21522,0.0027763,60.7,60.7,60.7,0.0,0.0,0.0,0.0,1,1,13.51,1,1.0,0,1.0,0,1.0,0,1.0
6,281,'1',0.08228,0.2017,0.00315245,58.3,58.3,58.3,0.0,0.0,0.0,0.0,1,1,13.07,1,1.0,0,1.0,0,1.0,0,1.0
6,282,'1',0.10087,0.2659,0.00641407,54.9,54.9,54.9,0.0,0.0,0.0,0.0,1,1,22.8,1,1.0,0,1.0,0,1.0,0,1.0
7,9,'1',0.00029,0.00119,0.0,322.0,322.0,322.0,0.0,0.0,0.0,0.0,1,1,0.0,1,1.0,0,1.0,0,1.0,0,1.0
8,15,'1',0.05541,0.14602,0.00519108,58.5,58.5,58.5,0.0,0.0,0.0,0.0,1,1,14.76,1,1.0,0,1.0,0,1.0,0,1.0
9,1429,'1',0.00314,0.02004,0.00714349,253.3,253.3,253.3,0.0,0.0,0.0,0.0,1,1,8.04,1,1.0,0,1.0,0,1.0,0,1.0
10,11,'1',0.02801,0.09239,0.0011754,69.5,69.5,69.5,0.0,0.0,0.0,0.0,1,1,7.32,1,1.0,0,1.0,0,1.0,0,1.0
10,1428,'1',0.02247,0.06596,0.00141151,81.1,81.1,81.1,0.0,0.0,0.0,0.0,1,1,6.71,1,1.0,0,1.0,0,1.0,0,1.0
11,27,'1',0.10225,0.29273,0.00749165,62.9,62.9,62.9,0.0,0.0,0.0,0.0,1,1,24.86,1,1.0,0,1.0,0,1.0,0,1.0
11,284,'1',0.0571,0.12365,0.00195983,38.6,38.6,38.6,0.0,0.0,0.0,0.0,1,1,8.81,1,1.0,0,1.0,0,1.0,0,1.0
12,14,'1',0.00026,0.00118,0.0,193.2,193.2,193.2,0.0,0.0,0.0,0.0,1,1,0.0,1,1.0,0,1.0,0,1.0,0,1.0
13,17,'1',0.02404,0.06292,0.000684217,67.8,67.8,67.8,0.0,0.0,0.0,0.0,1,1,4.69,1,1.0,0,1.0,0,1.0,0,1.0
13,25,'1',0.01667,0.04868,0.0105321,62.7,62.7,62.7,0.0,0.0,0.0,0.0,1,1,12.06,1,1.0,0,1.0,0,1.0,0,1.0
15,16,'1',0.00025,0.00113,0.0,82.8,82.8,82.8,0.0,0.0,0.0,0.0,1,1,0.0,1,1.0,0,1.0,0,1.0,0,1.0
17,1401,'1',0.02167,0.05696,0.000562571,76.2,76.2,76.2,0.0,0.0,0.0,0.0,1,1,3.7,1,1.0,0,1.0,0,1.0,0,1.0
18,17,'1',0.01641,0.0419,0.00069683,68.4,68.4,68.4,0.0,0.0,0.0,0.0,1,1,3.07,1,1.0,0,1.0,0,1.0,0,1.0
19,18,'1',0.04978,0.12154,0.00125506,66.3,66.3,66.3,0.0,0.0,0.0,0.0,1,1,8.75,1,1.0,0,1.0,0,1.0,0,1.0
19,21,'1',0.04995,0.10901,0.00117582,65.1,65.1,65.1,0.0,0.0,0.0,0.0,1,1,6.77,1,1.0,0,1.0,0,1.0,0,1.0
20,22,'1',0.02915,0.0669,0.00356269,59.0,59.0,59.0,0.0,0.0,0.0,0.0,1,1,10.12,1,1.0,0,1.0,0,1.0,0,1.0
20,124,'1',0.04016,0.10271,0.00133448,60.9,60.9,60.9,0.0,0.0,0.0,0.0,1,1,8.31,1,1.0,0,1.0,0,1.0,0,1.0
21,789,'1',0.04461,0.10843,0.00441154,63.8,63.8,63.8,0.0,0.0,0.0,0.0,1,1,11.17,1,1.0,0,1.0,0,1.0,0,1.0
22,25,'1',0.02407,0.07881,0.000658623,60.3,60.3,60.3,0.0,0.0,0.0,0.0,1,1,5.65,1,1.0,0,1.0,0,1.0,0,1.0
23,24,'1',0.00024,0.00118,0.0,82.8,82.8,82.8,0.0,0.0,0.0,0.0,1,1,0.0,1,1.0,0,1.0,0,1.0,0,1.0
24,8,'1',0.03763,0.09028,0.0030984,63.6,63.6,63.6,0.0,0.0,0.0,0.0,1,1,10.36,1,1.0,0,1.0,0,1.0,0,1.0
26,27,'1',0.00813,0.02038,0.000636728,69.1,69.1,69.1,0.0,0.0,0.0,0.0,1,1,2.46,1,1.0,0,1.0,0,1.0,0,1.0
27,28,'1',0.00026,0.001,0.0,82.8,82.8,82.8,0.0,0.0,0.0,0.0,1,1,0.0,1,1.0,0,1.0,0,1.0,0,1.0
27,147,'1',0.05735,0.12659,0.00152507,61.1,61.1,61.1,0.0,0.0,0.0,0.0,1,1,10.94,1,1.0,0,1.0,0,1.0,0,1.0
29,30,'1',0.00022,0.00118,0.0,82.8,82.8,82.8,0.0,0.0,0.0,0.0,1,1,0.0,1,1.0,0,1.0,0,1.0,0,1.0
29,39,'1',0.04234,0.13488,0.00334089,37.7,37.7,37.7,0.0,0.0,0.0,0.0,1,1,10.74,1,1.0,0,1.0,0,1.0,0,1.0
31,42,'1',0.06561,0.14634,0.00218529,62.3,62.3,62.3,0.0,0.0,0.0,0.0,1,1,13.21,1,1.0,0,1.0,0,1.0,0,1.0
31,50,'1',0.02108,0.06968,0.00513297,61.6,61.6,61.6,0.0,0.0,0.0,0.0,1,1,11.99,1,1.0,0,1.0,0,1.0,0,1.0
32,1512,'1',0.02773,0.062,0.00175154,61.5,61.5,61.5,0.0,0.0,0.0,0.0,1,1,6.48,1,1.0,0,1.0,0,1.0,0,1.0
33,34,'1',0.02886,0.06334,0.00117304,55.0,55.0,55.0,0.0,0.0,0.0,0.0,1,1,5.8,1,1.0,0,1.0,0,1.0,0,1.0
33,44,'1',0.03836,0.10125,0.0107134,50.5,50.5,50.5,0.0,0.0,0.0,0.0,1,1,16.32,1,1.0,0,1.0,0,1.0,0,1.0
34,32,'1',0.0238,0.06212,0.00119608,58.8,58.8,58.8,0.0,0.0,0.0,0.0,1,1,5.04,1,1.0,0,1.0,0,1.0,0,1.0
35,36,'1',0.00023,0.00106,0.0,82.8,82.8,82.8,0.0,0.0,0.0,0.0,1,1,0.0,1,1.0,0,1.0,0,1.0,0,1.0
36,37,'1',0.04153,0.10802,0.00105559,58.9,58.9,58.9,0.0,0.0,0.0,0.0,1,1,7.93,1,1.0,0,1.0,0,1.0,0,1.0
38,1224,'1',0.08241,0.20818,0.00311698,52.3,52.3,52.3,0.0,0.0,0.0,0.0,1,1,14.07,1,1.0,0,1.0,0,1.0,0,1.0
39,36,'1',0.0676,0.16153,0.00551525,62.3,62.3,62.3,0.0,0.0,0.0,0.0,1,1,16.31,1,1.0,0,1.0,0,1.0,0,1.0
39,46,'1',0.04744,0.14161,0.0100342,56.2,56.2,56.2,0.0,0.0,0.0,0.0,1,1,20.67,1,1.0,0,1.0,0,1.0,0,1.0
41,43,'1',0.00028,0.00119,0.0,322.0,322.0,322.0,0.0,0.0,0.0,0.0,1,1,0.0,1,1.0,0,1.0,0,1.0,0,1.0
41,1511,'1',0.0075,0.04091,0.0175041,225.4,225.4,225.4,0.0,0.0,0.0,0.0,1,1,13.8,1,1.0,0,1.0,0,1.0,0,1.0
42,40,'1',0.02716,0.06455,0.000985665,39.0,39.0,39.0,0.0,0.0,0.0,0.0,1,1,5.85,1,1.0,0,1.0,0,1.0,0,1.0
44,45,'1',0.00022,0.00118,0.0,82.8,82.8,82.8,0.0,0.0,0.0,0.0,1,1,0.0,1,1.0,0,1.0,0,1.0,0,1.0
44,46,'1',0.0356,0.08859,0.00230199,48.4,48.4,48.4,0.0,0.0,0.0,0.0,1,1,9.78,1,1.0,0,1.0,0,1.0,0,1.0
44,813,'1',0.07826,0.23232,0.00738698,48.8,48.8,48.8,0.0,0.0,0.0,0.0,1,1,21.79,1,1.0,0,1.0,0,1.0,0,1.0
47,42,'1',0.03479,0.10346,0.00577533,65.2,65.2,65.2,0.0,0.0,0.0,0.0,1,1,12.84,1,1.0,0,1.0,0,1.0,0,1.0
47,1512,'1',0.02577,0.0455,0.000498006,54.1,54.1,54.1,0.0,0.0,0.0,0.0,1,1,3.42,1,1.0,0,1.0,0,1.0,0,1.0
48,47,'1',0.01254,0.03273,0.00170119,46.6,46.6,46.6,0.0,0.0,0.0,0.0,1,1,4.34,1,1.0,0,1.0,0,1.0,0,1.0
49,1019,'1',0.03556,0.08966,0.00869286,57.3,57.3,57.3,0.0,0.0,0.0,0.0,1,1,14.91,1,1.0,0,1.0,0,1.0,0,1.0
50,51,'1',0.00027,0.00112,0.0,82.8,82.8,82.8,0.0,0.0,0.0,0.0,1,1,0.0,1,1.0,0,1.0,0,1.0,0,1.0
50,93,'1',0.02487,0.06181,0.0111441,64.8,64.8,64.8,0.0,0.0,0.0,0.0,1,1,13.85,1,1.0,0,1.0,0,1.0,0,1.0
52,50,'1',0.04122,0.10108,0.00144688,64.6,64.6,64.6,0.0,0.0,0.0,0.0,1,1,8.09,1,1.0,0,1.0,0,1.0,0,1.0
53,54,'1',0.06349,0.13884,0.00356796,54.1,54.1,54.1,0.0,0.0,0.0,0.0,1,1,11.6,1,1.0,0,1.0,0,1.0,0,1.0
53,55,'1',0.18742,0.38508,0.00445659,55.1,55.1,55.1,0.0,0.0,0.0,0.0,1,1,22.56,1,1.0,0,1.0,0,1.0,0,1.0
54,57,'1',0.03719,0.11687,0.00418983,55.4,55.4,55.4,0.0,0.0,0.0,0.0,1,1,12.28,1,1.0,0,1.0,0,1.0,0,1.0
55,56,'1',0.00026,0.00107,0.0,82.8,82.8,82.8,0.0,0.0,0.0,0.0,1,1,0.0,1,1.0,0,1.0,0,1.0,0,1.0
55,59,'1',0.12679,0.25425,0.00390763,58.9,58.9,58.9,0.0,0.0,0.0,0.0,1,1,17.52,1,1.0,0,1.0,0,1.0,0,1.0
55,247,'1',0.09425,0.26544,0.00646528,56.7,56.7,56.7,0.0,0.0,0.0,0.0,1,1,22.49,1,1.0,0,1.0,0,1.0,0,1.0
57,58,'1',0.00026,0.00105,0.0,82.8,82.8,82.8,0.0,0.0,0.0,0.0,1,1,0.0,1,1.0,0,1.0,0,1.0,0,1.0
57,792,'1',0.09536,0.21463,0.00617624,46.0,46.0,46.0,0.0,0.0,0.0,0.0,1,1,19.67,1,1.0,0,1.0,0,1.0,0,1.0
60,61,'1',0.01099,0.02645,0.000766571,63.3,63.3,63.3,0.0,0.0,0.0,0.0,1,1,2.74,1,1.0,0,1.0,0,1.0,0,1.0
60,1133,'1',0.01927,0.04625,0.00343702,65.5,65.5,65.5,0.0,0.0,0.0,0.0,1,1,6.51,1,1.0,0,1.0,0,1.0,0,1.0
61,62,'1',0.03918,0.08273,0.00745236,70.1,70.1,70.1,0.0,0.0,0.0,0.0,1,1,13.25,1,1.0,0,1.0,0,1.0,0,1.0
63,1365,'1',0.06866,0.16898,0.00364856,51.9,51.9,51.9,0.0,0.0,0.0,0.0,1,1,13.55,1,1.0,0,1.0,0,1.0,0,1.0
64,66,'1',0.00024,0.00118,0.0,1500.0,1500.0,1500.0,0.0,0.0,0.0,0.0,1,1,0.0,1,1.0,0,1.0,0,1.0,0,1.0
65,64,'1',0.0003,0.0203,0.0,947.2,947.2,947.2,0.0,0.0,0.0,0.0,1,1,0.0,1,1.0,0,1.0,0,1.0,0,1.0
65,75,'1',0.01623,0.10623,0.0839435,232.0,232.0,232.0,0.0,0.0,0.0,0.0,1,1,51.05,1,1.0,0,1.0,0,1.0,0,1.0
65,971,'1',0.00795,0.0484,0.0465639,240.5,240.5,240.5,0.0,0.0,0.0,0.0,1,1,25.3,1,1.0,0,1.0,0,1.0,0,1.0
65,1146,'1',0.00316,0.01703,0.0350861,296.1,296.1,296.1,0.0,0.0,0.0,0.0,1,1,12.74,1,1.0,0,1.0,0,1.0,0,1.0
67,69,'1',0.00027,0.00105,0.0,322.0,322.0,322.0,0.0,0.0,0.0,0.0,1,1,0.0,1,1.0,0,1.0,0,1.0,0,1.0
67,1150,'1',0.00294,0.01807,0.109657,239.5,239.5,239.5,0.0,0.0,0.0,0.0,1,1,24.13,1,1.0,0,1.0,0,1.0,0,1.0
68,71,'1',0.04031,0.08685,0.00190578,64.3,64.3,64.3,0.0,0.0,0.0,0.0,1,1,9.0,1,1.0,0,1.0,0,1.0,0,1.0
70,68,'1',0.05686,0.09742,0.00176764,61.8,61.8,61.8,0.0,0.0,0.0,0.0,1,1,8.13,1,1.0,0,1.0,0,1.0,0,1.0
71,70,'1',0.05982,0.14452,0.00426608,61.6,61.6,61.6,0.0,0.0,0.0,0.0,1,1,13.61,1,1.0,0,1.0,0,1.0,0,1.0
71,1255,'1',0.12471,0.23182,0.00869645,75.1,75.1,75.1,0.0,0.0,0.0,0.0,1,1,24.02,1,1.0,0,1.0,0,1.0,0,1.0
72,73,'1',0.06473,0.12817,0.000785679,44.7,44.7,44.7,0.0,0.0,0.0,0.0,1,1,6.84,1,1.0,0,1.0,0,1.0,0,1.0
72,1255,'1',0.01887,0.04138,0.000489991,64.0,64.0,64.0,0.0,0.0,0.0,0.0,1,1,3.18,1,1.0,0,1.0,0,1.0,0,1.0
72,1365,'1',0.00885,0.02504,0.000719839,70.0,70.0,70.0,0.0,0.0,0.0,0.0,1,1,2.49,1,1.0,0,1.0,0,1.0,0,1.0
73,805,'1',0.06533,0.12364,0.001864,36.7,36.7,36.7,0.0,0.0,0.0,0.0,1,1,9.01,1,1.0,0,1.0,0,1.0,0,1.0
74,63,'1',0.05576,0.18403,0.00400422,39.9,39.9,39.9,0.0,0.0,0.0,0.0,1,1,14.49,1,1.0,0,1.0,0,1.0,0,1.0
75,1366,'1',0.01862,0.1102,0.030958,224.0,224.0,224.0,0.0,0.0,0.0,0.0,1,1,33.47,1,1.0,0,1.0,0,1.0,0,1.0
76,273,'1',0.06315,0.14536,0.00623489,66.6,66.6,66.6,0.0,0.0,0.0,0.0,1,1,16.92,1,1.0,0,1.0,0,1.0,0,1.0
76,1365,'1',0.02455,0.04642,0.0333872,68.8,68.8,68.8,0.0,0.0,0.0,0.0,1,1,21.95,1,1.0,0,1.0,0,1.0,0,1.0
77,78,'1',0.12509,0.34626,0.00526885,44.1,44.1,44.1,0.0,0.0,0.0,0.0,1,1,23.52,1,1.0,0,1.0,0,1.0,0,1.0
78,936,'1',0.11939,0.24271,0.00422818,45.4,45.4,45.4,0.0,0.0,0.0,0.0,1,1,17.57,1,1.0,0,1.0,0,1.0,0,1.0
79,81,'1',0.00025,0.00115,0.0,193.2,193.2,193.2,0.0,0.0,0.0,0.0,1,1,0.0,1,1.0,0,1.0,0,1.0,0,1.0
80,82,'1',0.01429,0.0305,0.00243608,68.2,68.2,68.2,0.0,0.0,0.0,0.0,1,1,5.13,1,1.0,0,1.0,0,1.0,0,1.0
80,84,'1',0.03237,0.09116,0.000815056,57.9,57.9,57.9,0.0,0.0,0.0,0.0,1,1,5.42,1,1.0,0,1.0,0,1.0,0,1.0
81,977,'1',0.01002,0.06483,0.0360946,237.8,237.8,237.8,0.0,0.0,0.0,0.0,1,1,26.1,1,1.0,0,1.0,0,1.0,0,1.0
81,1327,'1',0.00494,0.02728,0.0337926,282.5,282.5,282.5,0.0,0.0,0.0,0.0,1,1,16.82,1,1.0,0,1.0,0,1.0,0,1.0
82,83,'1',0.02194,0.05695,0.00290635,54.6,54.6,54.6,0.0,0.0,0.0,0.0,1,1,8.44,1,1.0,0,1.0,0,1.0,0,1.0
82,95,'1',0.03315,0.10152,0.00223184,63.0,63.0,63.0,0.0,0.0,0.0,0.0,1,1,9.5,1,1.0,0,1.0,0,1.0,0,1.0
86,87,'1',0.00021,0.00118,0.0,82.8,82.8,82.8,0.0,0.0,0.0,0.0,1,1,0.0,1,1.0,0,1.0,0,1.0,0,1.0
86,90,'1',0.04516,0.10658,0.00174493,54.0,54.0,54.0,0.0,0.0,0.0,0.0,1,1,8.15,1,1.0,0,1.0,0,1.0,0,1.0
86,95,'1',0.04212,0.11971,0.00189271,56.5,56.5,56.5,0.0,0.0,0.0,0.0,1,1,10.11,1,1.0,0,1.0,0,1.0,0,1.0
88,89,'1',0.00022,0.0011,0.0,82.8,82.8,82.8,0.0,0.0,0.0,0.0,1,1,0.0,1,1.0,0,1.0,0,1.0,0,1.0
89,90,'1',0.02314,0.0696,0.00159905,54.2,54.2,54.2,0.0,0.0,0.0,0.0,1,1,7.45,1,1.0,0,1.0,0,1.0,0,1.0
89,949,'1',0.08751,0.16269,0.00547592,52.3,52.3,52.3,0.0,0.0,0.0,0.0,1,1,15.94,1,1.0,0,1.0,0,1.0,0,1.0
90,91,'1',0.00025,0.00111,0.0,82.8,82.8,82.8,0.0,0.0,0.0,0.0,1,1,0.0,1,1.0,0,1.0,0,1.0,0,1.0
90,945,'1',0.04932,0.11327,0.001833,49.9,49.9,49.9,0.0,0.0,0.0,0.0,1,1,9.0,1,1.0,0,1.0,0,1.0,0,1.0
92,93,'1',0.00025,0.00103,0.0,82.8,82.8,82.8,0.0,0.0,0.0,0.0,1,1,0.0,1,1.0,0,1.0,0,1.0,0,1.0
93,37,'1',0.05675,0.1069,0.00257658,55.9,55.9,55.9,0.0,0.0,0.0,0.0,1,1,10.63,1,1.0,0,1.0,0,1.0,0,1.0
93,1481,'1',0.02165,0.06009,0.00068862,67.2,67.2,67.2,0.0,0.0,0.0,0.0,1,1,3.67,1,1.0,0,1.0,0,1.0,0,1.0
94,95,'1',0.06187,0.17098,0.00266755,50.7,50.7,50.7,0.0,0.0,0.0,0.0,1,1,12.83,1,1.0,0,1.0,0,1.0,0,1.0
94,980,'1',0.06118,0.12168,0.00183037,49.6,49.6,49.6,0.0,0.0,0.0,0.0,1,1,11.29,1,1.0,0,1.0,0,1.0,0,1.0
96,97,'1',0.03253,0.08057,0.000922186,61.3,61.3,61.3,0.0,0.0,0.0,0.0,1,1,5.07,1,1.0,0,1.0,0,1.0,0,1.0
97,100,'1',0.0429,0.14633,0.00171127,71.4,71.4,71.4,0.0,0.0,0.0,0.0,1,1,9.79,1,1.0,0,1.0,0,1.0,0,1.0
97,104,'1',0.10036,0.22171,0.0108369,65.5,65.5,65.5,0.0,0.0,0.0,0.0,1,1,26.49,1,1.0,0,1.0,0,1.0,0,1.0
99,98,'1',0.0002,0.01445,0.0,677.0,677.0,677.0,0.0,0.0,0.0,0.0,1,1,0.0,1,1.0,0,1.0,0,1.0,0,1.0
99,101,'1',0.00029,0.00111,0.0,322.0,322.0,322.0,0.0,0.0,0.0,0.0,1,1,0.0,1,1.0,0,1.0,0,1.0,0,1.0
100,96,'1',0.02125,0.06228,0.000833431,72.3,72.3,72.3,0.0,0.0,0.0,0.0,1,1,4.44,1,1.0,0,1.0,0,1.0,0,1.0
100,649,'1',0.09918,0.21878,0.0079419,53.9,53.9,53.9,0.0,0.0,0.0,0.0,1,1,23.06,1,1.0,0,1.0,0,1.0,0,1.0
102,103,'1',0.00026,0.00101,0.0,82.8,82.8,82.8,0.0,0.0,0.0,0.0,1,1,0.0,1,1.0,0,1.0,0,1.0,0,1.0
103,372,'1',0.11462,0.28035,0.00459568,65.3,65.3,65.3,0.0,0.0,0.0,0.0,1,1,19.27,1,1.0,0,1.0,0,1.0,0,1.0
104,103,'1',0.05491,0.15351,0.00173905,62.1,62.1,62.1,0.0,0.0,0.0,0.0,1,1,10.19,1,1.0,0,1.0,0,1.0,0,1.0
104,1133,'1',0.12768,0.28238,0.00436851,68.1,68.1,68.1,0.0,0.0,0.0,0.0,1,1,20.55,1,1.0,0,1.0,0,1.0,0,1.0
105,106,'1',0.00026,0.00113,0.0,82.8,82.8,82.8,0.0,0.0,0.0,0.0,1,1,0.0,1,1.0,0,1.0,0,1.0,0,1.0
108,109,'1',0.00027,0.00113,0.0,82.8,82.8,82.8,0.0,0.0,0.0,0.0,1,1,0.0,1,1.0,0,1.0,0,1.0,0,1.0
109,4838,'1',0.01559,0.04139,0.00213104,60.7,60.7,60.7,0.0,0.0,0.0,0.0,1,1,5.44,1,1.0,0,1.0,0,1.0,0,1.0
110,111,'1',0.1188,0.27355,0.00577727,45.1,45.1,45.1,0.0,0.0,0.0,0.0,1,1,21.41,1,1.0,0,1.0,0,1.0,0,1.0
110,4961,'1',0.14314,0.33433,0.00469643,48.3,48.3,48.3,0.0,0.0,0.0,0.0,1,1,22.68,1,1.0,0,1.0,0,1.0,0,1.0
111,105,'1',0.08926,0.20021,0.0015973,43.7,43.7,43.7,0.0,0.0,0.0,0.0,1,1,12.33,1,1.0,0,1.0,0,1.0,0,1.0
112,111,'1',0.05043,0.12959,0.00127723,53.2,53.2,53.2,0.0,0.0,0.0,0.0,1,1,8.34,1,1.0,0,1.0,0,1.0,0,1.0
113,114,'1',0.00998,0.02695,0.00206604,48.5,48.5,48.5,0.0,0.0,0.0,0.0,1,1,4.93,1,1.0,0,1.0,0,1.0,0,1.0
114,115,'1',0.00029,0.00102,0.0,82.8,82.8,82.8,0.0,0.0,0.0,0.0,1,1,0.0,1,1.0,0,1.0,0,1.0,0,1.0
114,116,'1',0.0979,0.2023,0.00688085,59.8,59.8,59.8,0.0,0.0,0.0,0.0,1,1,20.26,1,1.0,0,1.0,0,1.0,0,1.0
114,117,'1',0.1638,0.37243,0.00336096,60.9,60.9,60.9,0.0,0.0,0.0,0.0,1,1,18.68,1,1.0,0,1.0,0,1.0,0,1.0
117,1051,'1',0.04619,0.11277,0.00200919,68.6,68.6,68.6,0.0,0.0,0.0,0.0,1,1,9.53,1,1.0,0,1.0,0,1.0,0,1.0
118,331,'1',0.05902,0.13355,0.00937268,66.0,66.0,66.0,0.0,0.0,0.0,0.0,1,1,19.66,1,1.0,0,1.0,0,1.0,0,1.0
119,118,'1',0.04837,0.13813,0.00231517,65.4,65.4,65.4,0.0,0.0,0.0,0.0,1,1,12.34,1,1.0,0,1.0,0,1.0,0,1.0
119,125,'1',0.0658,0.188,0.00278949,68.4,68.4,68.4,0.0,0.0,0.0,0.0,1,1,11.7,1,1.0,0,1.0,0,1.0,0,1.0
120,121,'1',0.0002,0.00106,0.0,82.8,82.8,82.8,0.0,0.0,0.0,0.0,1,1,0.0,1,1.0,0,1.0,0,1.0,0,1.0
121,716,'1',0.03793,0.09559,0.00488707,63.7,63.7,63.7,0.0,0.0,0.0,0.0,1,1,11.8,1,1.0,0,1.0,0,1.0,0,1.0
...